[Format]      =  4.0
[Frequency]   =  0
[Precision]   =  1e-008
[MinAngle]    =  30
[DoSmartMesh] =  1
[Depth]       =  1
[LengthUnits] =  inches
[ProblemType] =  planar
[Coordinates] =  cartesian
[ACSolver]    =  0
[PrevType]    =  0
[PrevSoln]    =  ""
[Comment]     =  "Add comments here."
[PointProps]   = 0
[BdryProps]   = 0
[BlockProps]  = 4
  <BeginBlock>
    <BlockName> = "NdFeB 10 MGOe (Bonded)"
    <Mu_x> = 1.2230000000000001
    <Mu_y> = 1.2230000000000001
    <H_c> = 445634
    <H_cAngle> = 0
    <J_re> = 0
    <J_im> = 0
    <Sigma> = 0
    <d_lam> = 0
    <Phi_h> = 0
    <Phi_hx> = 0
    <Phi_hy> = 0
    <LamType> = 0
    <LamFill> = 1
    <NStrands> = 0
    <WireD> = 0
    <BHPoints> = 0
  <EndBlock>
  <BeginBlock>
    <BlockName> = "Air"
    <Mu_x> = 1
    <Mu_y> = 1
    <H_c> = 0
    <H_cAngle> = 0
    <J_re> = 0
    <J_im> = 0
    <Sigma> = 0
    <d_lam> = 0
    <Phi_h> = 0
    <Phi_hx> = 0
    <Phi_hy> = 0
    <LamType> = 0
    <LamFill> = 1
    <NStrands> = 0
    <WireD> = 0
    <BHPoints> = 0
  <EndBlock>
  <BeginBlock>
    <BlockName> = "M-15 Steel"
    <Mu_x> = 1
    <Mu_y> = 1
    <H_c> = 0
    <H_cAngle> = 0
    <J_re> = 0
    <J_im> = 0
    <Sigma> = 1.8999999999999999
    <d_lam> = 0.63500000000000001
    <Phi_h> = 0
    <Phi_hx> = 0
    <Phi_hy> = 0
    <LamType> = 0
    <LamFill> = 0.97999999999999998
    <NStrands> = 0
    <WireD> = 0
    <BHPoints> = 47
      0	0
      0.050000000000000003	15.120714
      0.10000000000000001	22.718292000000002
      0.14999999999999999	27.842732999999999
      0.20000000000000001	31.871434000000001
      0.25	35.365043999999997
      0.29999999999999999	38.600588000000002
      0.34999999999999998	41.736201999999999
      0.40000000000000002	44.873978999999999
      0.45000000000000001	48.087806999999998
      0.5	51.437235999999999
      0.55000000000000004	54.975220999999998
      0.59999999999999998	58.752992999999996
      0.65000000000000002	62.823644000000002
      0.69999999999999996	67.245284999999996
      0.75	72.084406000000001
      0.80000000000000004	77.420100000000005
      0.84999999999999998	83.350020999999998
      0.90000000000000002	89.999611999999999
      0.94999999999999996	97.537352999999996
      1	106.20140600000001
      1.05	116.34846400000001
      1.1000000000000001	128.54732899999999
      1.1499999999999999	143.76543100000001
      1.2	163.75416899999999
      1.25	191.86815799999999
      1.3	234.833507
      1.3500000000000001	306.50976900000001
      1.3999999999999999	435.255202
      1.45	674.911968
      1.5	1108.3255690000001
      1.55	1813.085468
      1.6000000000000001	2801.2174209999998
      1.6499999999999999	4053.6531169999998
      1.7	5591.10689
      1.75	7448.318413
      1.8	9708.81567
      1.8500000000000001	12486.931615
      1.8999999999999999	16041.483644
      1.95	21249.420623999998
      2	31313.495878000002
      2.0499999999999998	53589.446877000002
      2.1000000000000001	88477.484601000004
      2.1499999999999999	124329.41054
      2.2000000000000002	159968.5693
      2.25	197751.604272
      2.2999999999999998	234024.75134700001
  <EndBlock>
  <BeginBlock>
    <BlockName> = "N52"
    <Mu_x> = 1.05
    <Mu_y> = 1.05
    <H_c> = 956180
    <H_cAngle> = 0
    <J_re> = 0
    <J_im> = 0
    <Sigma> = 0.66700000000000004
    <d_lam> = 0
    <Phi_h> = 0
    <Phi_hx> = 0
    <Phi_hy> = 0
    <LamType> = 0
    <LamFill> = 1
    <NStrands> = 0
    <WireD> = 0
    <BHPoints> = 8
      0	0
      0.073200000000000001	7484
      0.1464	18446
      0.2195	37084
      0.29270000000000002	72766
      0.3659	124571
      0.43909999999999999	179757
      1.4636	956180
  <EndBlock>
[CircuitProps]  = 0
[NumPoints] = 379
-72.867301204699999	21.595286873300001	0	0
-75.897646252000001	22.4072653815	0	0
-76.632255311400002	23.487649065799999	0	0
-76.443977001299984	25.121796060200001	0	0
-101.25658255720001	35.419848935499999	0	0
-76.93740510569998	26.102279322000001	0	0
-107.5190076224	23.639270328999999	0	0
-104.93081717130001	33.298528591900002	0	0
-105.39768727880001	19.965035714900001	0	0
-79.722810650500008	15.874698975999999	0	0
-78.812146552200005	16.461551423500001	0	0
-78.116638478200002	17.994597497099999	0	0
-73.902577385100003	17.7315835681	0	0
-76.947155334800001	18.547375770999999	0	0
-75.973679652900003	2	0	0
-79.110923698800022	2	0	0
-80.100125434899994	2.8534396876999981	0	0
-80.341210917299975	4.4806344859999996	0	0
-106.9736796529	8.0058148422999995	0	0
-81.071593608399994	5.299999999999998	0	0
-109.9736796529	-4.9941851576999987	0	0
-109.9736796529	5.0058148423000004	0	0
-106.9736796529	-7.9941851576999969	0	0
-81.114996181899997	-5.299999999999998	0	0
-80.387250800399997	-4.4974468523000004	0	0
-80.112223110200006	-2.8366273213999982	0	0
-75.973679652900003	-2	0	0
-79.125658683599994	-2	0	0
-73.902577385100003	-17.7315835681	0	0
-76.932922432399991	-18.543562076299999	0	0
-78.109304381800001	-17.9752268895	0	0
-78.763324079499995	-16.465874923800001	0	0
-105.4006972626	-19.9538023022	0	0
-79.680886983799994	-15.8634655633	0	0
-104.93382715520001	-33.287295179300003	0	0
-107.5220176062	-23.628036916399999	0	0
-101.259592541	-35.4086155229	0	0
-76.979328772399995	-26.1135127346	0	0
-76.484096752699983	-25.149951557600001	0	0
-76.64829212890001	-23.474540675699998	0	0
-72.867301204699999	-21.595286873300001	0	0
-75.911879154399983	-22.4110790762	0	0
-66.795136598400006	-36.254789018899999	0	0
-69.512069640000007	-37.8234110418	0	0
-70.79546331680001	-37.578911459699988	0	0
-71.817846868199993	-36.290262168700004	0	0
-96.644831536799998	-46.553600795100003	0	0
-72.860059590200009	-35.945862164200001	0	0
-92.742907748199997	-59.31193104430001	0	0
-97.742907748199997	-50.651677006399993	0	0
-88.644831536799998	-60.4100072556	0	0
-67.597647321400004	-45.147432731000002	0	0
-67.368677907299997	-44.088528626499993	0	0
-67.96090670640001	-42.512702876500001	0	0
-64.795136598400006	-39.718890633999997	0	0
-67.524830511099992	-41.294880149299992	0	0
-55.135717636599992	-52.307290511899993	0	0
-57.354084175699988	-54.525657051000003	0	0
-58.6570284218	-54.621655316000002	0	0
-59.97810207749999	-53.641528019299997	0	0
-81.3027802549	-69.980848327199993	0	0
-61.073939542399991	-53.578607661799992	0	0
-74.231712443100008	-81.294556826099978	0	0
-81.3027802549	-74.2234890143	0	0
-69.9890717559	-81.294556826099978	0	0
-53.609297915900001	-61.104629796400012	0	0
-53.6621949946	-60.0225453292	0	0
-54.642097802499997	-58.653694631800001	0	0
-52.307290511899993	-55.135717636599992	0	0
-54.536076258599998	-57.364503383399999	0	0
-39.718890633999997	-64.795136598400006	0	0
-41.287512656899999	-67.512069640000007	0	0
-42.521213975199977	-67.942023629099992	0	0
-44.0509487486	-67.337212382200008	0	0
-60.4200788578	-88.639016694599974	0	0
-45.125731444300001	-67.560059590199998	0	0
-50.6617486086	-97.737092905899999	0	0
-59.322002646499989	-92.737092905899999	0	0
-46.563672397299989	-96.639016694599988	0	0
-35.967563450900002	-72.897647321400001	0	0
-36.298722173900003	-71.8661247597	0	0
-37.599520233699998	-70.797534027799983	0	0
-36.254789018899999	-66.795136598400006	0	0
-37.8307785342	-69.524830511099992	0	0
-21.595286873300001	-72.867301204699999	0	0
-22.4072653815	-75.897646252000001	0	0
-23.487649065799999	-76.632255311400002	0	0
-25.121796060200001	-76.443977001299984	0	0
-35.419848935499999	-101.25658255720001	0	0
-26.102279322000001	-76.93740510569998	0	0
-23.639270328999999	-107.5190076224	0	0
-33.298528591900002	-104.93081717130001	0	0
-19.965035714900001	-105.39768727880001	0	0
-15.874698975999999	-79.722810650500008	0	0
-16.461551423500001	-78.812146552200005	0	0
-17.994597497099999	-78.116638478200002	0	0
-17.7315835681	-73.902577385100003	0	0
-18.547375770999999	-76.947155334800001	0	0
-2	-75.973679652900003	0	0
-2	-79.110923698800022	0	0
-2.8534396876999981	-80.100125434899994	0	0
-4.4806344859999996	-80.341210917299975	0	0
-8.0058148422999995	-106.9736796529	0	0
-5.299999999999998	-81.071593608399994	0	0
4.9941851576999987	-109.9736796529	0	0
-5.0058148423000004	-109.9736796529	0	0
7.9941851576999969	-106.9736796529	0	0
5.299999999999998	-81.114996181899997	0	0
4.4974468523000004	-80.387250800399997	0	0
2.8366273213999982	-80.112223110200006	0	0
2	-75.973679652900003	0	0
2	-79.125658683599994	0	0
17.7315835681	-73.902577385100003	0	0
18.543562076299999	-76.932922432399991	0	0
17.9752268895	-78.109304381800001	0	0
16.465874923800001	-78.763324079499995	0	0
19.9538023022	-105.4006972626	0	0
15.8634655633	-79.680886983799994	0	0
33.287295179300003	-104.93382715520001	0	0
23.628036916399999	-107.5220176062	0	0
35.4086155229	-101.259592541	0	0
26.1135127346	-76.979328772399995	0	0
25.149951557600001	-76.484096752699983	0	0
23.474540675699998	-76.64829212890001	0	0
21.595286873300001	-72.867301204699999	0	0
22.4110790762	-75.911879154399983	0	0
36.254789018899999	-66.795136598400006	0	0
37.8234110418	-69.512069640000007	0	0
37.578911459699988	-70.79546331680001	0	0
36.290262168700004	-71.817846868199993	0	0
46.553600795100003	-96.644831536799998	0	0
35.945862164200001	-72.860059590200009	0	0
59.31193104430001	-92.742907748199997	0	0
50.651677006399993	-97.742907748199997	0	0
60.4100072556	-88.644831536799998	0	0
45.147432731000002	-67.597647321400004	0	0
44.088528626499993	-67.368677907299997	0	0
42.512702876500001	-67.96090670640001	0	0
39.718890633999997	-64.795136598400006	0	0
41.294880149299992	-67.524830511099992	0	0
52.307290511899993	-55.135717636599992	0	0
54.525657051000003	-57.354084175699988	0	0
54.621655316000002	-58.6570284218	0	0
53.641528019299997	-59.97810207749999	0	0
69.980848327199993	-81.3027802549	0	0
53.578607661799992	-61.073939542399991	0	0
81.294556826099978	-74.231712443100008	0	0
74.2234890143	-81.3027802549	0	0
81.294556826099978	-69.9890717559	0	0
61.104629796400012	-53.609297915900001	0	0
60.0225453292	-53.6621949946	0	0
58.653694631800001	-54.642097802499997	0	0
55.135717636599992	-52.307290511899993	0	0
57.364503383399999	-54.536076258599998	0	0
64.795136598400006	-39.718890633999997	0	0
67.512069640000007	-41.287512656899999	0	0
67.942023629099992	-42.521213975199977	0	0
67.337212382200008	-44.0509487486	0	0
88.639016694599974	-60.4200788578	0	0
67.560059590199998	-45.125731444300001	0	0
97.737092905899999	-50.6617486086	0	0
92.737092905899999	-59.322002646499989	0	0
96.639016694599988	-46.563672397299989	0	0
72.897647321400001	-35.967563450900002	0	0
71.8661247597	-36.298722173900003	0	0
70.797534027799983	-37.599520233699998	0	0
66.795136598400006	-36.254789018899999	0	0
69.524830511099992	-37.8307785342	0	0
72.867301204699999	-21.595286873300001	0	0
75.897646252000001	-22.4072653815	0	0
76.632255311400002	-23.487649065799999	0	0
76.443977001299984	-25.121796060200001	0	0
101.25658255720001	-35.419848935499999	0	0
76.93740510569998	-26.102279322000001	0	0
107.5190076224	-23.639270328999999	0	0
104.93081717130001	-33.298528591900002	0	0
105.39768727880001	-19.965035714900001	0	0
79.722810650500008	-15.874698975999999	0	0
78.812146552200005	-16.461551423500001	0	0
78.116638478200002	-17.994597497099999	0	0
73.902577385100003	-17.7315835681	0	0
76.947155334800001	-18.547375770999999	0	0
75.973679652900003	-2	0	0
79.110923698800022	-2	0	0
80.100125434899994	-2.8534396876999981	0	0
80.341210917299975	-4.4806344859999996	0	0
106.9736796529	-8.0058148422999995	0	0
81.071593608399994	-5.299999999999998	0	0
109.9736796529	4.9941851576999987	0	0
109.9736796529	-5.0058148423000004	0	0
106.9736796529	7.9941851576999969	0	0
81.114996181899997	5.299999999999998	0	0
80.387250800399997	4.4974468523000004	0	0
80.112223110200006	2.8366273213999982	0	0
75.973679652900003	2	0	0
79.125658683599994	2	0	0
73.902577385100003	17.7315835681	0	0
76.932922432399991	18.543562076299999	0	0
78.109304381800001	17.9752268895	0	0
78.763324079499995	16.465874923800001	0	0
105.4006972626	19.9538023022	0	0
79.680886983799994	15.8634655633	0	0
104.93382715520001	33.287295179300003	0	0
107.5220176062	23.628036916399999	0	0
101.259592541	35.4086155229	0	0
76.979328772399995	26.1135127346	0	0
76.484096752699983	25.149951557600001	0	0
76.64829212890001	23.474540675699998	0	0
72.867301204699999	21.595286873300001	0	0
75.911879154399983	22.4110790762	0	0
66.795136598400006	36.254789018899999	0	0
69.512069640000007	37.8234110418	0	0
70.79546331680001	37.578911459699988	0	0
71.817846868199993	36.290262168700004	0	0
96.644831536799998	46.553600795100003	0	0
72.860059590200009	35.945862164200001	0	0
92.742907748199997	59.31193104430001	0	0
97.742907748199997	50.651677006399993	0	0
88.644831536799998	60.4100072556	0	0
67.597647321400004	45.147432731000002	0	0
67.368677907299997	44.088528626499993	0	0
67.96090670640001	42.512702876500001	0	0
64.795136598400006	39.718890633999997	0	0
67.524830511099992	41.294880149299992	0	0
55.135717636599992	52.307290511899993	0	0
57.354084175699988	54.525657051000003	0	0
58.6570284218	54.621655316000002	0	0
59.97810207749999	53.641528019299997	0	0
81.3027802549	69.980848327199993	0	0
61.073939542399991	53.578607661799992	0	0
74.231712443100008	81.294556826099978	0	0
81.3027802549	74.2234890143	0	0
69.9890717559	81.294556826099978	0	0
53.609297915900001	61.104629796400012	0	0
53.6621949946	60.0225453292	0	0
54.642097802499997	58.653694631800001	0	0
52.307290511899993	55.135717636599992	0	0
54.536076258599998	57.364503383399999	0	0
39.718890633999997	64.795136598400006	0	0
41.287512656899999	67.512069640000007	0	0
42.521213975199977	67.942023629099992	0	0
44.0509487486	67.337212382200008	0	0
60.4200788578	88.639016694599974	0	0
45.125731444300001	67.560059590199998	0	0
50.6617486086	97.737092905899999	0	0
59.322002646499989	92.737092905899999	0	0
46.563672397299989	96.639016694599988	0	0
35.967563450900002	72.897647321400001	0	0
36.298722173900003	71.8661247597	0	0
37.599520233699998	70.797534027799983	0	0
36.254789018899999	66.795136598400006	0	0
37.8307785342	69.524830511099992	0	0
21.595286873300001	72.867301204699999	0	0
22.4072653815	75.897646252000001	0	0
23.487649065799999	76.632255311400002	0	0
25.121796060200001	76.443977001299984	0	0
35.419848935499999	101.25658255720001	0	0
26.102279322000001	76.93740510569998	0	0
23.639270328999999	107.5190076224	0	0
33.298528591900002	104.93081717130001	0	0
19.965035714900001	105.39768727880001	0	0
15.874698975999999	79.722810650500008	0	0
16.461551423500001	78.812146552200005	0	0
17.994597497099999	78.116638478200002	0	0
17.7315835681	73.902577385100003	0	0
18.547375770999999	76.947155334800001	0	0
2	75.973679652900003	0	0
2	79.110923698800022	0	0
2.8534396876999981	80.100125434899994	0	0
4.4806344859999996	80.341210917299975	0	0
8.0058148422999995	106.9736796529	0	0
5.299999999999998	81.071593608399994	0	0
-4.9941851576999987	109.9736796529	0	0
5.0058148423000004	109.9736796529	0	0
-7.9941851576999969	106.9736796529	0	0
-5.299999999999998	81.114996181899997	0	0
-4.4974468523000004	80.387250800399997	0	0
-2.8366273213999982	80.112223110200006	0	0
-2	75.973679652900003	0	0
-2	79.125658683599994	0	0
-17.7315835681	73.902577385100003	0	0
-18.543562076299999	76.932922432399991	0	0
-17.9752268895	78.109304381800001	0	0
-16.465874923800001	78.763324079499995	0	0
-19.9538023022	105.4006972626	0	0
-15.8634655633	79.680886983799994	0	0
-33.287295179300003	104.93382715520001	0	0
-23.628036916399999	107.5220176062	0	0
-35.4086155229	101.259592541	0	0
-26.1135127346	76.979328772399995	0	0
-25.149951557600001	76.484096752699983	0	0
-23.474540675699998	76.64829212890001	0	0
-21.595286873300001	72.867301204699999	0	0
-22.4110790762	75.911879154399983	0	0
-36.254789018899999	66.795136598400006	0	0
-37.8234110418	69.512069640000007	0	0
-37.578911459699988	70.79546331680001	0	0
-36.290262168700004	71.817846868199993	0	0
-46.553600795100003	96.644831536799998	0	0
-35.945862164200001	72.860059590200009	0	0
-59.31193104430001	92.742907748199997	0	0
-50.651677006399993	97.742907748199997	0	0
-60.4100072556	88.644831536799998	0	0
-45.147432731000002	67.597647321400004	0	0
-44.088528626499993	67.368677907299997	0	0
-42.512702876500001	67.96090670640001	0	0
-39.718890633999997	64.795136598400006	0	0
-41.294880149299992	67.524830511099992	0	0
-52.307290511899993	55.135717636599992	0	0
-54.525657051000003	57.354084175699988	0	0
-54.621655316000002	58.6570284218	0	0
-53.641528019299997	59.97810207749999	0	0
-69.980848327199993	81.3027802549	0	0
-53.578607661799992	61.073939542399991	0	0
-81.294556826099978	74.231712443100008	0	0
-74.2234890143	81.3027802549	0	0
-81.294556826099978	69.9890717559	0	0
-61.104629796400012	53.609297915900001	0	0
-60.0225453292	53.6621949946	0	0
-58.653694631800001	54.642097802499997	0	0
-55.135717636599992	52.307290511899993	0	0
-57.364503383399999	54.536076258599998	0	0
-64.795136598400006	39.718890633999997	0	0
-67.512069640000007	41.287512657000001	0	0
-67.942023629099992	42.521213975199977	0	0
-67.337212382200008	44.0509487486	0	0
-88.639016694599974	60.4200788578	0	0
-67.560059590199998	45.125731444300001	0	0
-97.737092905899999	50.6617486086	0	0
-92.737092905899999	59.322002646499989	0	0
-96.639016694599988	46.563672397299989	0	0
-72.897647321400001	35.967563450900002	0	0
-71.8661247597	36.298722173900003	0	0
-70.79753402770001	37.599520233699998	0	0
-66.795136598400006	36.254789018899999	0	0
-69.524830511099992	37.8307785342	0	0
6	23.5	0	0
6	16.439282222799999	0	0
-60.284161473999987	-22	0	0
-60.284161473999987	22.000000000000011	0	0
-6	23.5	0	0
-6	16.439282222799999	0	0
-72.284161474000001	20	0	0
-65.254756374399989	36.970485126900002	0	0
-58.183688562500009	27.070990190300002	0	0
-27.070990190300002	58.183688562500002	0	0
-36.97048512690003	65.254756374399989	0	0
-20	72.284161473999987	0	0
-22	60.284161473999973	0	0
22	60.284161473999973	0	0
36.97048512689998	65.254756374399989	0	0
27.070990190300002	58.183688562500002	0	0
58.183688562499981	27.070990190300002	0	0
65.25475637439996	36.970485126900002	0	0
72.284161473999973	20	0	0
60.284161473999973	22.000000000000011	0	0
60.284161473999973	-22	0	0
72.284161473999973	-20	0	0
65.25475637439996	-36.970485126900009	0	0
58.183688562499981	-27.070990190300009	0	0
27.070990190300002	-58.183688562499981	0	0
36.97048512689998	-65.254756374399989	0	0
20	-72.284161474000001	0	0
22	-60.284161473999987	0	0
-22	-60.284161473999987	0	0
-20	-72.284161474000001	0	0
-36.97048512690003	-65.254756374399989	0	0
-27.070990190300002	-58.183688562499981	0	0
-58.183688562500009	-27.070990190300009	0	0
-65.254756374399989	-36.970485126900009	0	0
-72.284161474000001	-20	0	0
20	72.284161473999987	0	0
130	0	0	0
-130	0	0	0
-3.2146978477618039e-015	-17.500000000000011	0	0
74.999999999995381	0	0	0
-74.999999999995381	0	0	0
161.1524087703913	0	0	0
-161.1524087703913	0	0	0
[NumSegments] = 195
0	1	-1	0	0	0
2	3	-1	0	0	0
4	5	-1	0	0	0
6	7	-1	0	0	0
8	9	-1	0	0	0
10	11	-1	0	0	0
12	13	-1	0	0	0
14	15	-1	0	0	0
16	17	-1	0	0	0
18	19	-1	0	0	0
20	21	-1	0	0	0
22	23	-1	0	0	0
24	25	-1	0	0	0
26	27	-1	0	0	0
28	29	-1	0	0	0
30	31	-1	0	0	0
32	33	-1	0	0	0
34	35	-1	0	0	0
36	37	-1	0	0	0
38	39	-1	0	0	0
40	41	-1	0	0	0
42	43	-1	0	0	0
44	45	-1	0	0	0
46	47	-1	0	0	0
48	49	-1	0	0	0
50	51	-1	0	0	0
52	53	-1	0	0	0
54	55	-1	0	0	0
56	57	-1	0	0	0
58	59	-1	0	0	0
60	61	-1	0	0	0
62	63	-1	0	0	0
64	65	-1	0	0	0
66	67	-1	0	0	0
68	69	-1	0	0	0
70	71	-1	0	0	0
72	73	-1	0	0	0
74	75	-1	0	0	0
76	77	-1	0	0	0
78	79	-1	0	0	0
80	81	-1	0	0	0
82	83	-1	0	0	0
84	85	-1	0	0	0
86	87	-1	0	0	0
88	89	-1	0	0	0
90	91	-1	0	0	0
92	93	-1	0	0	0
94	95	-1	0	0	0
96	97	-1	0	0	0
98	99	-1	0	0	0
100	101	-1	0	0	0
102	103	-1	0	0	0
104	105	-1	0	0	0
106	107	-1	0	0	0
108	109	-1	0	0	0
110	111	-1	0	0	0
112	113	-1	0	0	0
114	115	-1	0	0	0
116	117	-1	0	0	0
118	119	-1	0	0	0
120	121	-1	0	0	0
122	123	-1	0	0	0
124	125	-1	0	0	0
126	127	-1	0	0	0
128	129	-1	0	0	0
130	131	-1	0	0	0
132	133	-1	0	0	0
134	135	-1	0	0	0
136	137	-1	0	0	0
138	139	-1	0	0	0
140	141	-1	0	0	0
142	143	-1	0	0	0
144	145	-1	0	0	0
146	147	-1	0	0	0
148	149	-1	0	0	0
150	151	-1	0	0	0
152	153	-1	0	0	0
154	155	-1	0	0	0
156	157	-1	0	0	0
158	159	-1	0	0	0
160	161	-1	0	0	0
162	163	-1	0	0	0
164	165	-1	0	0	0
166	167	-1	0	0	0
168	169	-1	0	0	0
170	171	-1	0	0	0
172	173	-1	0	0	0
174	175	-1	0	0	0
176	177	-1	0	0	0
178	179	-1	0	0	0
180	181	-1	0	0	0
182	183	-1	0	0	0
184	185	-1	0	0	0
186	187	-1	0	0	0
188	189	-1	0	0	0
190	191	-1	0	0	0
192	193	-1	0	0	0
194	195	-1	0	0	0
196	197	-1	0	0	0
198	199	-1	0	0	0
200	201	-1	0	0	0
202	203	-1	0	0	0
204	205	-1	0	0	0
206	207	-1	0	0	0
208	209	-1	0	0	0
210	211	-1	0	0	0
212	213	-1	0	0	0
214	215	-1	0	0	0
216	217	-1	0	0	0
218	219	-1	0	0	0
220	221	-1	0	0	0
222	223	-1	0	0	0
224	225	-1	0	0	0
226	227	-1	0	0	0
228	229	-1	0	0	0
230	231	-1	0	0	0
232	233	-1	0	0	0
234	235	-1	0	0	0
236	237	-1	0	0	0
238	239	-1	0	0	0
240	241	-1	0	0	0
242	243	-1	0	0	0
244	245	-1	0	0	0
246	247	-1	0	0	0
248	249	-1	0	0	0
250	251	-1	0	0	0
252	253	-1	0	0	0
254	255	-1	0	0	0
256	257	-1	0	0	0
258	259	-1	0	0	0
260	261	-1	0	0	0
262	263	-1	0	0	0
264	265	-1	0	0	0
266	267	-1	0	0	0
268	269	-1	0	0	0
270	271	-1	0	0	0
272	273	-1	0	0	0
274	275	-1	0	0	0
276	277	-1	0	0	0
278	279	-1	0	0	0
280	281	-1	0	0	0
282	283	-1	0	0	0
284	285	-1	0	0	0
286	287	-1	0	0	0
288	289	-1	0	0	0
290	291	-1	0	0	0
292	293	-1	0	0	0
294	295	-1	0	0	0
296	297	-1	0	0	0
298	299	-1	0	0	0
300	301	-1	0	0	0
302	303	-1	0	0	0
304	305	-1	0	0	0
306	307	-1	0	0	0
308	309	-1	0	0	0
310	311	-1	0	0	0
312	313	-1	0	0	0
314	315	-1	0	0	0
316	317	-1	0	0	0
318	319	-1	0	0	0
320	321	-1	0	0	0
322	323	-1	0	0	0
324	325	-1	0	0	0
326	327	-1	0	0	0
328	329	-1	0	0	0
330	331	-1	0	0	0
332	333	-1	0	0	0
334	335	-1	0	0	0
336	337	-1	0	0	0
338	339	-1	0	0	0
340	341	-1	0	0	0
339	342	-1	0	0	0
343	344	-1	0	0	0
344	345	-1	0	0	0
345	346	-1	0	0	0
347	348	-1	0	0	0
348	349	-1	0	0	0
340	336	-1	0	0	0
350	351	-1	0	0	0
351	352	-1	0	0	0
352	353	-1	0	0	0
354	355	-1	0	0	0
355	356	-1	0	0	0
356	357	-1	0	0	0
358	359	-1	0	0	0
359	360	-1	0	0	0
360	361	-1	0	0	0
362	363	-1	0	0	0
363	364	-1	0	0	0
364	365	-1	0	0	0
366	367	-1	0	0	0
367	368	-1	0	0	0
368	369	-1	0	0	0
370	338	-1	0	0	0
349	371	-1	0	0	0
[NumArcSegments] = 192
372	373	180	5	0	0	0	5
373	372	180	5	0	0	0	5
2	1	81.572356128199999	5	0	0	0	5
3	5	66.572356128199999	5	0	0	0	5
4	7	90	5	0	0	0	5
6	8	90	5	0	0	0	5
9	10	65.597286907000012	5	0	0	0	5
13	11	80.597286907000012	5	0	0	0	5
12	14	11.984084491600015	5	0	0	0	5
16	15	81.572356128199999	5	0	0	0	5
17	19	66.572356128199999	5	0	0	0	5
18	21	90	5	0	0	0	5
20	22	90	5	0	0	0	5
23	24	65.597286907000012	5	0	0	0	5
27	25	80.597286907000012	5	0	0	0	5
26	28	11.984084491600015	5	0	0	0	5
30	29	81.572356128199999	5	0	0	0	5
31	33	66.572356128199999	5	0	0	0	5
32	35	90	5	0	0	0	5
34	36	90	5	0	0	0	5
37	38	65.597286907000012	5	0	0	0	5
41	39	80.597286907000012	5	0	0	0	5
40	42	11.984084491600015	5	0	0	0	5
44	43	81.572356128199999	5	0	0	0	5
45	47	66.572356128199999	5	0	0	0	5
46	49	90	5	0	0	0	5
48	50	90	5	0	0	0	5
51	52	65.597286907000012	5	0	0	0	5
55	53	80.597286907000012	5	0	0	0	5
54	56	11.984084491600015	5	0	0	0	5
58	57	81.572356128199999	5	0	0	0	5
59	61	66.572356128199999	5	0	0	0	5
60	63	90	5	0	0	0	5
62	64	90	5	0	0	0	5
65	66	65.597286907000012	5	0	0	0	5
69	67	80.597286907000012	5	0	0	0	5
68	70	11.984084491600015	5	0	0	0	5
72	71	81.572356128199999	5	0	0	0	5
73	75	66.572356128199999	5	0	0	0	5
74	77	90	5	0	0	0	5
76	78	90	5	0	0	0	5
79	80	65.597286907000012	5	0	0	0	5
83	81	80.597286907000012	5	0	0	0	5
82	84	11.9840844916001	5	0	0	0	5
86	85	81.572356128199999	5	0	0	0	5
87	89	66.572356128199999	5	0	0	0	5
88	91	90	5	0	0	0	5
90	92	90	5	0	0	0	5
93	94	65.597286906999997	5	0	0	0	5
97	95	80.597286907000012	5	0	0	0	5
96	98	11.984084491600015	5	0	0	0	5
100	99	81.572356128199999	5	0	0	0	5
101	103	66.572356128199999	5	0	0	0	5
102	105	90	5	0	0	0	5
104	106	90	5	0	0	0	5
107	108	65.597286906999997	5	0	0	0	5
111	109	80.597286907000012	5	0	0	0	5
110	112	11.984084491600015	5	0	0	0	5
114	113	81.572356128199999	5	0	0	0	5
115	117	66.572356128199999	5	0	0	0	5
116	119	90	5	0	0	0	5
118	120	90	5	0	0	0	5
121	122	65.597286907000012	5	0	0	0	5
125	123	80.597286907000012	5	0	0	0	5
124	126	11.984084491600015	5	0	0	0	5
128	127	81.572356128199999	5	0	0	0	5
129	131	66.572356128199999	5	0	0	0	5
130	133	90	5	0	0	0	5
132	134	90	5	0	0	0	5
135	136	65.597286906999997	5	0	0	0	5
139	137	80.597286907000012	5	0	0	0	5
138	140	11.984084491600015	5	0	0	0	5
142	141	81.572356128199999	5	0	0	0	5
143	145	66.572356128199999	5	0	0	0	5
144	147	90	5	0	0	0	5
146	148	90	5	0	0	0	5
149	150	65.597286906999997	5	0	0	0	5
153	151	80.597286907000012	5	0	0	0	5
152	154	11.984084491600015	5	0	0	0	5
156	155	81.572356128199999	5	0	0	0	5
157	159	66.572356128199999	5	0	0	0	5
158	161	90	5	0	0	0	5
160	162	90	5	0	0	0	5
163	164	65.597286907000012	5	0	0	0	5
167	165	80.597286907000012	5	0	0	0	5
166	168	11.984084491600015	5	0	0	0	5
170	169	81.572356128199999	5	0	0	0	5
171	173	66.572356128199999	5	0	0	0	5
172	175	90	5	0	0	0	5
174	176	90	5	0	0	0	5
177	178	65.597286907000012	5	0	0	0	5
181	179	80.597286907000012	5	0	0	0	5
180	182	11.984084491600015	5	0	0	0	5
184	183	81.572356128199999	5	0	0	0	5
185	187	66.572356128199999	5	0	0	0	5
186	189	90	5	0	0	0	5
188	190	90	5	0	0	0	5
191	192	65.597286907000012	5	0	0	0	5
195	193	80.597286907000012	5	0	0	0	5
194	196	11.984084491600004	5	0	0	0	5
198	197	81.572356128199999	5	0	0	0	5
199	201	66.572356128199999	5	0	0	0	5
200	203	90	5	0	0	0	5
202	204	90	5	0	0	0	5
205	206	65.597286907000012	5	0	0	0	5
209	207	80.597286907000012	5	0	0	0	5
208	210	11.984084491600001	5	0	0	0	5
212	211	81.572356128199999	5	0	0	0	5
213	215	66.572356128199999	5	0	0	0	5
214	217	90	5	0	0	0	5
216	218	90	5	0	0	0	5
219	220	65.597286907000012	5	0	0	0	5
223	221	80.597286907000012	5	0	0	0	5
222	224	11.98408449159999	5	0	0	0	5
226	225	81.572356128199999	5	0	0	0	5
227	229	66.572356128199999	5	0	0	0	5
228	231	90	5	0	0	0	5
230	232	90	5	0	0	0	5
233	234	65.597286907000012	5	0	0	0	5
237	235	80.597286907000012	5	0	0	0	5
236	238	11.984084491600015	5	0	0	0	5
240	239	81.572356128199999	5	0	0	0	5
241	243	66.572356128199999	5	0	0	0	5
242	245	90	5	0	0	0	5
244	246	90	5	0	0	0	5
247	248	65.597286907000012	5	0	0	0	5
251	249	80.597286907000012	5	0	0	0	5
250	252	11.98408449159998	5	0	0	0	5
254	253	81.572356128199999	5	0	0	0	5
255	257	66.572356128199999	5	0	0	0	5
256	259	90	5	0	0	0	5
258	260	90	5	0	0	0	5
261	262	65.597286907000012	5	0	0	0	5
265	263	80.597286907000012	5	0	0	0	5
264	266	11.984084491599958	5	0	0	0	5
268	267	81.572356128199999	5	0	0	0	5
269	271	66.572356128199999	5	0	0	0	5
270	273	90	5	0	0	0	5
272	274	90	5	0	0	0	5
275	276	65.597286907000012	5	0	0	0	5
279	277	80.597286907000012	5	0	0	0	5
278	280	11.984084491599987	5	0	0	0	5
282	281	81.572356128199999	5	0	0	0	5
283	285	66.572356128199999	5	0	0	0	5
284	287	90	5	0	0	0	5
286	288	90	5	0	0	0	5
289	290	65.597286907000012	5	0	0	0	5
293	291	80.597286907000012	5	0	0	0	5
292	294	11.984084491599987	5	0	0	0	5
296	295	81.572356128199999	5	0	0	0	5
297	299	66.572356128199999	5	0	0	0	5
298	301	90	5	0	0	0	5
300	302	90	5	0	0	0	5
303	304	65.597286907000012	5	0	0	0	5
307	305	80.597286906999997	5	0	0	0	5
306	308	11.984084491600001	5	0	0	0	5
310	309	81.572356128199999	5	0	0	0	5
311	313	66.572356128199999	5	0	0	0	5
312	315	90	5	0	0	0	5
314	316	90	5	0	0	0	5
317	318	65.597286907000012	5	0	0	0	5
321	319	80.597286906999997	5	0	0	0	5
320	322	11.984084491600015	5	0	0	0	5
324	323	81.572356128199999	5	0	0	0	5
325	327	66.572356128199999	5	0	0	0	5
326	329	90	5	0	0	0	5
328	330	90	5	0	0	0	5
331	332	65.597286907000012	5	0	0	0	5
335	333	80.597286907000012	5	0	0	0	5
334	0	11.984084491600015	5	0	0	0	5
341	374	159.94895743350028	5	0	0	0	5
374	337	159.94895743350028	5	0	0	0	5
375	354	15.466009953420295	5	0	0	0	5
354	353	14.067980093137175	5	0	0	0	5
353	350	30.932019906882282	5	0	0	0	5
350	371	14.067980093137747	5	0	0	0	5
371	347	30.932019906841859	5	0	0	0	5
347	346	14.067980093138111	5	0	0	0	5
346	343	30.932019906883614	5	0	0	0	5
343	342	14.067980093137464	5	0	0	0	5
342	376	15.466009953421528	5	0	0	0	5
376	370	15.466009953420279	5	0	0	0	5
370	369	14.067980093137166	5	0	0	0	5
369	366	30.932019906882235	5	0	0	0	5
366	365	14.067980093137201	5	0	0	0	5
365	362	30.93201990684247	5	0	0	0	5
362	361	14.067980093138074	5	0	0	0	5
361	358	30.932019906883628	5	0	0	0	5
358	357	14.067980093137475	5	0	0	0	5
357	375	15.466009953421535	5	0	0	0	5
377	378	180	5	0	0	0	5
378	377	180	5	0	0	0	5
[NumHoles] = 0
[NumBlockLabels] = 13
-96	102	2	-1	0	0	0	1	0
-116	-28	3	-1	0	0	0	1	0
-66	-69	2	-1	0	0	0	1	0
-68	-1	4	-1	0	0	0	1	0
-51	50	4	-1	0	135	0	1	0
0	66	4	-1	0	270	0	1	0
44	46	4	-1	0	45	0	1	0
63	-6	4	-1	0	180	0	1	0
51	-46	4	-1	0	315	0	1	0
2	-68	4	-1	0	90	0	1	0
-55	-42	4	-1	0	225	0	1	0
-34	-25	3	-1	0	0	0	1	0
4	1	3	-1	0	0	0	1	0
