[Format]      =  4.0
[Frequency]   =  0
[Precision]   =  1e-008
[MinAngle]    =  30
[DoSmartMesh] =  1
[Depth]       =  1
[LengthUnits] =  inches
[ProblemType] =  planar
[Coordinates] =  cartesian
[ACSolver]    =  0
[PrevType]    =  0
[PrevSoln]    =  ""
[Comment]     =  "Add comments here."
[PointProps]   = 0
[BdryProps]   = 0
[BlockProps]  = 3
  <BeginBlock>
    <BlockName> = "M470-65A 50HZ"
    <Mu_x> = 1
    <Mu_y> = 1
    <H_c> = 0
    <H_cAngle> = 0
    <J_re> = 0
    <J_im> = 0
    <Sigma> = 0
    <d_lam> = 0
    <Phi_h> = 0
    <Phi_hx> = 0
    <Phi_hy> = 0
    <LamType> = 0
    <LamFill> = 1
    <NStrands> = 0
    <WireD> = 0
    <BHPoints> = 32
      0	0
      0.10000000000000001	32
      0.14999999999999999	37
      0.20000000000000001	42
      0.25	47
      0.29999999999999999	52
      0.34999999999999998	56
      0.40000000000000002	61
      0.45000000000000001	65
      0.5	70
      0.55000000000000004	74
      0.59999999999999998	79
      0.65000000000000002	83
      0.69999999999999996	88
      0.75	93
      0.80000000000000004	98
      0.84999999999999998	103
      0.90000000000000002	109
      1	124
      1.05	133
      1.1000000000000001	144
      1.1499999999999999	157
      1.2	175
      1.25	201
      1.3	236
      1.3500000000000001	287
      1.3999999999999999	390
      1.45	598
      1.5	1022
      1.55	1765
      1.6000000000000001	2858
      1.6499999999999999	4292
  <EndBlock>
  <BeginBlock>
    <BlockName> = "Air"
    <Mu_x> = 1
    <Mu_y> = 1
    <H_c> = 0
    <H_cAngle> = 0
    <J_re> = 0
    <J_im> = 0
    <Sigma> = 0
    <d_lam> = 0
    <Phi_h> = 0
    <Phi_hx> = 0
    <Phi_hy> = 0
    <LamType> = 0
    <LamFill> = 1
    <NStrands> = 0
    <WireD> = 0
    <BHPoints> = 0
  <EndBlock>
  <BeginBlock>
    <BlockName> = "N52"
    <Mu_x> = 1.05
    <Mu_y> = 1.05
    <H_c> = 956180
    <H_cAngle> = 0
    <J_re> = 0
    <J_im> = 0
    <Sigma> = 0.66700000000000004
    <d_lam> = 0
    <Phi_h> = 0
    <Phi_hx> = 0
    <Phi_hy> = 0
    <LamType> = 0
    <LamFill> = 1
    <NStrands> = 0
    <WireD> = 0
    <BHPoints> = 27
      0	0
      0.073200000000000001	7484
      0.1464	18446
      0.27000000000000002	37084
      0.34999999999999998	60000
      0.40000000000000002	84174
      0.45000000000000001	126261
      0.5	168348
      0.55000000000000004	210435
      0.59999999999999998	252522
      0.65000000000000002	294609
      0.69999999999999996	336696
      0.75	378783
      0.80000000000000004	420870
      0.84999999999999998	462957
      0.90000000000000002	505044
      0.94999999999999996	547131
      1	589218
      1.05	631305
      1.1000000000000001	673392
      1.1499999999999999	715479
      1.2	757566
      1.25	799653
      1.3	841740
      1.3500000000000001	883827
      1.3999999999999999	925914
      1.45	968001
  <EndBlock>
[CircuitProps]  = 0
[NumPoints] = 109
25.0546864469	59.977184720899999	0	0
26.7892416625	64.129451355399993	0	0
-20.1549880225	97.8773019299	0	0
-20.1549880225	76.425602251300006	0	0
19.844248222800001	97.953466024099995	0	0
19.844248222800001	76.569329255	0	0
-6	23.5	0	0
6	23.5	0	0
-22.345898114200001	70.179154076100005	0	0
-25.469122201699999	66.274609122000001	0	0
22.4827168986	69.8011790969	0	0
25.866791977599998	66.1204134348	0	0
83.295562552199996	55.231557580400001	0	0
68.174694432999999	40.110689461200003	0	0
65.254568652700002	33.459205495799999	0	0
65.044776729500001	28.4636086997	0	0
33.823219656900001	65.425091833400003	0	0
28.853836510899999	64.872614550400002	0	0
54.957975213399997	83.461432624300002	0	0
39.789332902699996	68.292790313500007	0	0
97.953466024099995	-19.844248222800001	0	0
76.569329255	-19.844248222800001	0	0
69.8011790969	-22.4827168986	0	0
66.1204134348	-25.866791977599998	0	0
70.179154076100005	22.345898114200001	0	0
66.274609122000001	25.469122201699999	0	0
97.8773019299	20.1549880225	0	0
76.425602251300006	20.1549880225	0	0
55.231557580400001	-83.295562552199996	0	0
40.110689461200003	-68.174694432999999	0	0
33.459205495799999	-65.254568652700002	0	0
28.4636086997	-65.044776729500001	0	0
65.425091833400003	-33.823219656900001	0	0
64.872614550400002	-28.853836510899999	0	0
83.461432624300002	-54.957975213399997	0	0
68.292790313500007	-39.789332902699996	0	0
-19.844248222800001	-97.953466024099995	0	0
-19.844248222800001	-76.569329255	0	0
-22.4827168986	-69.8011790969	0	0
-25.866791977599998	-66.1204134348	0	0
22.345898114200001	-70.179154076100005	0	0
25.469122201699999	-66.274609122000001	0	0
20.1549880225	-97.8773019299	0	0
20.1549880225	-76.425602251300006	0	0
-83.295562552199996	-55.231557580400001	0	0
-68.174694432999999	-40.110689461200003	0	0
-65.254568652700002	-33.459205495799999	0	0
-65.044776729500001	-28.4636086997	0	0
-33.823219656900001	-65.425091833400003	0	0
-28.853836510899999	-64.872614550400002	0	0
-54.957975213399997	-83.461432624300002	0	0
-39.789332902699996	-68.292790313500007	0	0
-97.953466024099995	19.844248222800001	0	0
-76.569329255	19.844248222800001	0	0
-69.8011790969	22.4827168986	0	0
-66.1204134348	25.866791977599998	0	0
-70.179154076100005	-22.345898114200001	0	0
-66.274609122000001	-25.469122201699999	0	0
-97.8773019299	-20.1549880225	0	0
-76.425602251300006	-20.1549880225	0	0
-55.231557580400001	83.295562552199996	0	0
-40.110689461200003	68.174694432999999	0	0
-33.459205495799999	65.254568652700002	0	0
-28.4636086997	65.044776729500001	0	0
-65.425091833400003	33.823219656900001	0	0
-64.872614550400002	28.853836510899999	0	0
-83.461432624300002	54.957975213399997	0	0
-68.292790313500007	39.789332902699996	0	0
-6	16.439282222799999	0	0
6	16.439282222799999	0	0
60.126612719800001	24.693935345500002	0	0
64.289224369600007	26.4035154848	0	0
-24.693935345500002	60.126612719800001	0	0
-26.4035154848	64.289224369600007	0	0
59.977184720899999	-25.0546864469	0	0
64.129451355399993	-26.7892416625	0	0
24.693935345500002	-60.126612719800001	0	0
26.4035154848	-64.289224369600007	0	0
-25.0546864469	-59.977184720899999	0	0
-26.7892416625	-64.129451355399993	0	0
-60.126612719699999	-24.693935345500002	0	0
-64.289224369600007	-26.4035154848	0	0
-59.977184720899999	25.0546864469	0	0
-64.129451355399993	26.7892416625	0	0
125	0	0	0
-125	0	0	0
-25.113387734404224	101.76078876416469	0	0
-54.482334348643981	89.541139245187395	0	0
-89.71359055959698	54.19789702846839	0	0
-101.83997482823982	24.790318682642031	0	0
-101.7607887641647	-25.113387734404217	0	0
-89.541139245187409	-54.482334348643981	0	0
-54.197897028468397	-89.71359055959698	0	0
-24.790318682642084	-101.8399748282398	0	0
25.113387734404213	-101.7607887641647	0	0
54.482334348643889	-89.541139245187452	0	0
89.71359055959698	-54.197897028468397	0	0
101.8399748282398	-24.790318682642091	0	0
54.19789702846839	89.71359055959698	0	0
24.790318682641985	101.83997482823983	0	0
89.541139245228663	54.482334348625287	0	0
101.76078876416469	25.113387734404231	0	0
-3.2146978477618039e-015	-17.500000000000011	0	0
69.5	0	0	0
-69.5	0	0	0
65	0	0	0
-65	0	0	0
613.52206770466228	-0.029788964739282199	0	0
-615.40383957983659	-0.029788964739282199	0	0
[NumSegments] = 43
0	1	-1	0	0	0
2	3	-1	0	0	0
4	5	-1	0	0	0
6	7	-1	0	0	0
8	9	-1	0	0	0
10	11	-1	0	0	0
12	13	-1	0	0	0
14	15	-1	0	0	0
16	17	-1	0	0	0
18	19	-1	0	0	0
20	21	-1	0	0	0
22	23	-1	0	0	0
24	25	-1	0	0	0
26	27	-1	0	0	0
28	29	-1	0	0	0
30	31	-1	0	0	0
32	33	-1	0	0	0
34	35	-1	0	0	0
36	37	-1	0	0	0
38	39	-1	0	0	0
40	41	-1	0	0	0
42	43	-1	0	0	0
44	45	-1	0	0	0
46	47	-1	0	0	0
48	49	-1	0	0	0
50	51	-1	0	0	0
52	53	-1	0	0	0
54	55	-1	0	0	0
56	57	-1	0	0	0
58	59	-1	0	0	0
60	61	-1	0	0	0
62	63	-1	0	0	0
64	65	-1	0	0	0
66	67	-1	0	0	0
6	68	-1	0	0	0
7	69	-1	0	0	0
70	71	-1	0	0	0
72	73	-1	0	0	0
74	75	-1	0	0	0
76	77	-1	0	0	0
78	79	-1	0	0	0
80	81	-1	0	0	0
82	83	-1	0	0	0
[NumArcSegments] = 74
5	10	42.595255697999988	5	0	0	0	5
8	3	38.656122749799977	5	0	0	0	5
11	9	42.387412248800004	5	0	0	0	5
13	14	42.595255697999988	5	0	0	0	5
15	17	42.387412248800004	5	0	0	0	5
16	19	38.656122749799977	5	0	0	0	5
21	22	42.595255697999988	5	0	0	0	5
23	25	42.38741224879999	5	0	0	0	5
24	27	38.656122749800005	5	0	0	0	5
29	30	42.595255698000003	5	0	0	0	5
31	33	42.387412248800047	5	0	0	0	5
32	35	38.656122749800005	5	0	0	0	5
37	38	42.595255698000003	5	0	0	0	5
39	41	42.387412248800018	5	0	0	0	5
40	43	38.656122749800005	5	0	0	0	5
45	46	42.595255698000017	5	0	0	0	5
47	49	42.38741224879999	5	0	0	0	5
48	51	38.656122749800005	5	0	0	0	5
53	54	42.595255698000017	5	0	0	0	5
55	57	42.38741224879999	5	0	0	0	5
56	59	38.656122749799998	5	0	0	0	5
61	62	42.595255698000017	5	0	0	0	5
63	65	42.387412248800004	5	0	0	0	5
64	67	38.656122749799998	5	0	0	0	5
84	85	180	5	0	0	0	5
85	84	180	5	0	0	0	5
86	87	17.455973124400003	5	0	0	0	5
88	89	17.455973124400003	5	0	0	0	5
90	91	17.455973124400003	5	0	0	0	5
92	93	17.455973124399975	5	0	0	0	5
94	95	17.455973124399975	5	0	0	0	5
96	97	17.455973124399975	5	0	0	0	5
98	99	17.455973124400003	5	0	0	0	5
89	52	103.6810978769	5	0	0	0	5
66	88	103.8629289987	5	0	0	0	5
91	44	103.6810978769	5	0	0	0	5
58	90	103.8629289987	5	0	0	0	5
50	92	103.8629289987	5	0	0	0	5
93	36	103.68109787690003	5	0	0	0	5
42	94	103.8629289987	5	0	0	0	5
95	28	103.68109787690003	5	0	0	0	5
34	96	103.8629289987	5	0	0	0	5
100	12	103.6810978769	5	0	0	0	5
18	98	103.8629289987	5	0	0	0	5
99	4	103.6810978769	5	0	0	0	5
2	86	103.8629289987	5	0	0	0	5
87	60	103.6810978769	5	0	0	0	5
101	100	17.4559731244	5	0	0	0	5
97	20	103.68109787690003	5	0	0	0	5
26	101	103.8629289987	5	0	0	0	5
68	102	159.94895743350003	5	0	0	0	5
102	69	159.94895743350003	5	0	0	0	5
103	71	22.327903414812024	5	0	0	0	5
71	1	44.999999999987615	5	0	0	0	5
1	73	45.000000000004164	5	0	0	0	5
73	83	44.999999999994742	5	0	0	0	5
83	104	22.67209658520143	5	0	0	0	5
104	81	22.327903414812972	5	0	0	0	5
81	79	44.999999999989598	5	0	0	0	5
79	77	45.000000000013465	5	0	0	0	5
77	75	44.999999999983601	5	0	0	0	5
75	103	22.672096585200354	5	0	0	0	5
105	70	22.327903414804346	5	0	0	0	5
70	0	45.000000000037403	5	0	0	0	5
0	72	44.999999999955818	5	0	0	0	5
72	82	45.000000000046903	5	0	0	0	5
82	106	22.672096585155536	5	0	0	0	5
106	80	22.327903414836413	5	0	0	0	5
80	78	45.000000000000924	5	0	0	0	5
78	76	44.999999999970306	5	0	0	0	5
76	74	45.000000000034078	5	0	0	0	5
74	105	22.672096585158251	5	0	0	0	5
107	108	180	5	0	0	0	5
108	107	180	5	0	0	0	5
[NumHoles] = 0
[NumBlockLabels] = 13
-87	67	1	-1	0	0	0	1	0
-86	39	2	-1	0	0	0	1	0
-33	34	1	-1	0	0	0	1	0
5	1	1	-1	0	0	0	1	0
-47	49	3	-1	0	-45	0	1	0
-68	-3	3	-1	0	180	0	1	0
-48	-48	3	-1	0	45	0	1	0
2	-66	3	-1	0	-90	0	1	0
44	-50	3	-1	0	135	0	1	0
68	0	3	-1	0	0	0	1	0
45	48	3	-1	0	-135	0	1	0
-2	67	3	-1	0	90	0	1	0
-218	108	2	-1	0	0	0	1	0
