[Format]      =  4.0
[Frequency]   =  0
[Precision]   =  1e-008
[MinAngle]    =  30
[DoSmartMesh] =  1
[Depth]       =  1
[LengthUnits] =  inches
[ProblemType] =  planar
[Coordinates] =  cartesian
[ACSolver]    =  0
[PrevType]    =  0
[PrevSoln]    =  ""
[Comment]     =  "Add comments here."
[PointProps]   = 0
[BdryProps]   = 0
[BlockProps]  = 5
  <BeginBlock>
    <BlockName> = "1mm"
    <Mu_x> = 1
    <Mu_y> = 1
    <H_c> = 0
    <H_cAngle> = 0
    <J_re> = 0
    <J_im> = 0
    <Sigma> = 58
    <d_lam> = 0
    <Phi_h> = 0
    <Phi_hx> = 0
    <Phi_hy> = 0
    <LamType> = 3
    <LamFill> = 1
    <NStrands> = 1
    <WireD> = 1
    <BHPoints> = 0
  <EndBlock>
  <BeginBlock>
    <BlockName> = "Air"
    <Mu_x> = 1
    <Mu_y> = 1
    <H_c> = 0
    <H_cAngle> = 0
    <J_re> = 0
    <J_im> = 0
    <Sigma> = 0
    <d_lam> = 0
    <Phi_h> = 0
    <Phi_hx> = 0
    <Phi_hy> = 0
    <LamType> = 0
    <LamFill> = 1
    <NStrands> = 0
    <WireD> = 0
    <BHPoints> = 0
  <EndBlock>
  <BeginBlock>
    <BlockName> = "M470-65A 50HZ"
    <Mu_x> = 1
    <Mu_y> = 1
    <H_c> = 0
    <H_cAngle> = 0
    <J_re> = 0
    <J_im> = 0
    <Sigma> = 0
    <d_lam> = 0
    <Phi_h> = 0
    <Phi_hx> = 0
    <Phi_hy> = 0
    <LamType> = 0
    <LamFill> = 1
    <NStrands> = 0
    <WireD> = 0
    <BHPoints> = 32
      0	0
      0.10000000000000001	32
      0.14999999999999999	37
      0.20000000000000001	42
      0.25	47
      0.29999999999999999	52
      0.34999999999999998	56
      0.40000000000000002	61
      0.45000000000000001	65
      0.5	70
      0.55000000000000004	74
      0.59999999999999998	79
      0.65000000000000002	83
      0.69999999999999996	88
      0.75	93
      0.80000000000000004	98
      0.84999999999999998	103
      0.90000000000000002	109
      1	124
      1.05	133
      1.1000000000000001	144
      1.1499999999999999	157
      1.2	175
      1.25	201
      1.3	236
      1.3500000000000001	287
      1.3999999999999999	390
      1.45	598
      1.5	1022
      1.55	1765
      1.6000000000000001	2858
      1.6499999999999999	4292
  <EndBlock>
  <BeginBlock>
    <BlockName> = "M470-65A 200HZ"
    <Mu_x> = 1
    <Mu_y> = 1
    <H_c> = 0
    <H_cAngle> = 0
    <J_re> = 0
    <J_im> = 0
    <Sigma> = 0
    <d_lam> = 0
    <Phi_h> = 0
    <Phi_hx> = 0
    <Phi_hy> = 0
    <LamType> = 0
    <LamFill> = 1
    <NStrands> = 0
    <WireD> = 0
    <BHPoints> = 32
      0	0
      0.10000000000000001	36
      0.14999999999999999	44
      0.20000000000000001	51
      0.25	59
      0.29999999999999999	66
      0.34999999999999998	74
      0.40000000000000002	81
      0.45000000000000001	89
      0.5	96
      0.55000000000000004	104
      0.59999999999999998	111
      0.65000000000000002	119
      0.69999999999999996	127
      0.75	136
      0.80000000000000004	145
      0.84999999999999998	155
      0.90000000000000002	165
      1	188
      1.05	200
      1.1000000000000001	213
      1.1499999999999999	226
      1.2	241
      1.25	255
      1.3	275
      1.3500000000000001	310
      1.3999999999999999	397
      1.45	595
      1.5	1021
      1.55	1787
      1.6000000000000001	2929
      1.6499999999999999	4436
  <EndBlock>
  <BeginBlock>
    <BlockName> = "M470-65A 400HZ"
    <Mu_x> = 1
    <Mu_y> = 1
    <H_c> = 0
    <H_cAngle> = 0
    <J_re> = 0
    <J_im> = 0
    <Sigma> = 0
    <d_lam> = 0
    <Phi_h> = 0
    <Phi_hx> = 0
    <Phi_hy> = 0
    <LamType> = 0
    <LamFill> = 1
    <NStrands> = 0
    <WireD> = 0
    <BHPoints> = 32
      0	0
      0.10000000000000001	43
      0.14999999999999999	53
      0.20000000000000001	63
      0.25	73
      0.29999999999999999	84
      0.34999999999999998	94
      0.40000000000000002	106
      0.45000000000000001	117
      0.5	129
      0.55000000000000004	141
      0.59999999999999998	154
      0.65000000000000002	168
      0.69999999999999996	183
      0.75	199
      0.80000000000000004	216
      0.84999999999999998	234
      0.90000000000000002	254
      1	298
      1.05	322
      1.1000000000000001	347
      1.1499999999999999	373
      1.2	401
      1.25	434
      1.3	461
      1.3500000000000001	482
      1.3999999999999999	526
      1.45	655
      1.5	1026
      1.55	1789
      1.6000000000000001	2951
      1.6499999999999999	4470
  <EndBlock>
[CircuitProps]  = 1
  <BeginCircuit>
    <CircuitName> = "New Circuit"
    <TotalAmps_re> = 10
    <TotalAmps_im> = 0
    <CircuitType> = 1
  <EndCircuit>
[NumPoints] = 22
2382.3033370718999	1718.5318769431201	0	1
2332.3033370718999	1718.5318769431201	0	1
2382.3033370718999	1698.5318769431201	0	1
2382.3033370718999	1668.5318769431201	0	1
2332.3033370718999	1668.5318769431201	0	1
2372.3033370719008	1708.531876943121	0	1
2342.3033370718999	1708.531876943121	0	1
2372.3033370719008	1698.5318769431201	0	1
2372.3033370719008	1678.531876943121	0	1
2342.3033370718999	1678.531876943121	0	1
2391.754199689738	1724.9942270971189	0	1
2322.838432249479	1724.9942270971189	0	1
2391.754199689738	1660.1572531875379	0	1
2322.838432249479	1660.1572531875379	0	1
2344.8494701083869	1706.2370894412379	0	1
2342.3033370718999	1706.2370894412379	0	1
2344.8494701083869	1681.939821169914	0	1
2342.3033370718999	1681.939821169914	0	1
2329.5979398726722	1681.939821169914	0	1
2332.3033370718999	1681.939821169914	0	1
2329.5979398726722	1706.2370894412379	0	1
2332.3033370718999	1706.2370894412379	0	1
[NumSegments] = 24
0	1	-1	0	0	1
2	0	-1	0	0	1
3	2	-1	0	0	1
4	3	-1	0	0	1
1	21	-1	0	0	1
5	6	-1	0	0	1
7	5	-1	0	0	1
8	7	-1	0	0	1
9	8	-1	0	0	1
9	17	-1	0	0	1
10	11	-1	0	0	1
12	10	-1	0	0	1
13	12	-1	0	0	1
13	11	-1	0	0	1
15	6	-1	0	0	1
14	15	-1	0	0	1
16	14	-1	0	0	1
17	15	-1	0	0	1
17	16	-1	0	0	1
19	4	-1	0	0	1
18	19	-1	0	0	1
20	18	-1	0	0	1
21	19	-1	0	0	1
21	20	-1	0	0	1
[NumArcSegments] = 0
[NumHoles] = 0
[NumBlockLabels] = 5
2329.4000000000001	1714.3	2	-1	0	0	0	1	0
2330.4000000000001	1699.3	1	-1	1	0	0	-100	0
2342.5999999999999	1693.7	1	-1	1	0	0	100	0
2356	1697.7	2	-1	0	0	0	1	0
2355.9000000000001	1713.0999999999999	5	-1	0	0	0	1	0
