[Format]      =  4.0
[Frequency]   =  50
[Precision]   =  1e-008
[MinAngle]    =  30
[DoSmartMesh] =  1
[Depth]       =  20
[LengthUnits] =  millimeters
[ProblemType] =  planar
[Coordinates] =  cartesian
[ACSolver]    =  0
[PrevType]    =  0
[PrevSoln]    =  ""
[Comment]     =  "Add comments here."
[PointProps]   = 0
[BdryProps]   = 0
[BlockProps]  = 4
  <BeginBlock>
    <BlockName> = "Air"
    <Mu_x> = 1
    <Mu_y> = 1
    <H_c> = 0
    <H_cAngle> = 0
    <J_re> = 0
    <J_im> = 0
    <Sigma> = 0
    <d_lam> = 0
    <Phi_h> = 0
    <Phi_hx> = 0
    <Phi_hy> = 0
    <LamType> = 0
    <LamFill> = 1
    <NStrands> = 0
    <WireD> = 0
    <BHPoints> = 0
  <EndBlock>
  <BeginBlock>
    <BlockName> = "M-15 Steel"
    <Mu_x> = 1
    <Mu_y> = 1
    <H_c> = 0
    <H_cAngle> = 0
    <J_re> = 0
    <J_im> = 0
    <Sigma> = 1.8999999999999999
    <d_lam> = 0.63500000000000001
    <Phi_h> = 0
    <Phi_hx> = 0
    <Phi_hy> = 0
    <LamType> = 0
    <LamFill> = 0.97999999999999998
    <NStrands> = 0
    <WireD> = 0
    <BHPoints> = 47
      0	0
      0.050000000000000003	15.120714
      0.10000000000000001	22.718292000000002
      0.14999999999999999	27.842732999999999
      0.20000000000000001	31.871434000000001
      0.25	35.365043999999997
      0.29999999999999999	38.600588000000002
      0.34999999999999998	41.736201999999999
      0.40000000000000002	44.873978999999999
      0.45000000000000001	48.087806999999998
      0.5	51.437235999999999
      0.55000000000000004	54.975220999999998
      0.59999999999999998	58.752992999999996
      0.65000000000000002	62.823644000000002
      0.69999999999999996	67.245284999999996
      0.75	72.084406000000001
      0.80000000000000004	77.420100000000005
      0.84999999999999998	83.350020999999998
      0.90000000000000002	89.999611999999999
      0.94999999999999996	97.537352999999996
      1	106.20140600000001
      1.05	116.34846400000001
      1.1000000000000001	128.54732899999999
      1.1499999999999999	143.76543100000001
      1.2	163.75416899999999
      1.25	191.86815799999999
      1.3	234.833507
      1.3500000000000001	306.50976900000001
      1.3999999999999999	435.255202
      1.45	674.911968
      1.5	1108.3255690000001
      1.55	1813.085468
      1.6000000000000001	2801.2174209999998
      1.6499999999999999	4053.6531169999998
      1.7	5591.10689
      1.75	7448.318413
      1.8	9708.81567
      1.8500000000000001	12486.931615
      1.8999999999999999	16041.483644
      1.95	21249.420623999998
      2	31313.495878000002
      2.0499999999999998	53589.446877000002
      2.1000000000000001	88477.484601000004
      2.1499999999999999	124329.41054
      2.2000000000000002	159968.5693
      2.25	197751.604272
      2.2999999999999998	234024.75134700001
  <EndBlock>
  <BeginBlock>
    <BlockName> = "1mm"
    <Mu_x> = 1
    <Mu_y> = 1
    <H_c> = 0
    <H_cAngle> = 0
    <J_re> = 0
    <J_im> = 0
    <Sigma> = 58
    <d_lam> = 0
    <Phi_h> = 0
    <Phi_hx> = 0
    <Phi_hy> = 0
    <LamType> = 3
    <LamFill> = 1
    <NStrands> = 1
    <WireD> = 1
    <BHPoints> = 0
  <EndBlock>
  <BeginBlock>
    <BlockName> = "0.16mm"
    <Mu_x> = 1
    <Mu_y> = 1
    <H_c> = 0
    <H_cAngle> = 0
    <J_re> = 0
    <J_im> = 0
    <Sigma> = 58
    <d_lam> = 0
    <Phi_h> = 0
    <Phi_hx> = 0
    <Phi_hy> = 0
    <LamType> = 3
    <LamFill> = 1
    <NStrands> = 1
    <WireD> = 0.16
    <BHPoints> = 0
  <EndBlock>
[CircuitProps]  = 2
  <BeginCircuit>
    <CircuitName> = "devre 2"
    <TotalAmps_re> = 10
    <TotalAmps_im> = 0
    <CircuitType> = 0
  <EndCircuit>
  <BeginCircuit>
    <CircuitName> = "devre 1"
    <TotalAmps_re> = 0.54600000000000004
    <TotalAmps_im> = 0
    <CircuitType> = 1
  <EndCircuit>
[NumPoints] = 31
2382.3033370718999	1718.5318769431201	0	1
2332.3033370718999	1718.5318769431201	0	1
2382.3033370718999	1698.5318769431201	0	1
2382.3033370718999	1668.5318769431201	0	1
2332.3033370718999	1668.5318769431201	0	1
2372.3033370719008	1708.531876943121	0	1
2342.3033370718999	1708.531876943121	0	1
2372.3033370719008	1698.5318769431201	0	1
2372.3033370719008	1678.531876943121	0	1
2342.3033370718999	1678.531876943121	0	1
2391.754199689738	1724.9942270971189	0	1
2322.838432249479	1724.9942270971189	0	1
2391.754199689738	1660.1572531875379	0	1
2322.838432249479	1660.1572531875379	0	1
2344.8494701083869	1706.2370894412379	0	1
2342.3033370718999	1706.2370894412379	0	1
2344.8494701083869	1681.939821169914	0	1
2342.3033370718999	1681.939821169914	0	1
2329.5979398726722	1681.939821169914	0	1
2332.3033370718999	1681.939821169914	0	1
2329.5979398726722	1706.2370894412379	0	1
2332.3033370718999	1706.2370894412379	0	1
2385.3065973418529	1706.2370894412379	0	1
2382.3033370718999	1706.2370894412379	0	1
2385.3065973418529	1680.8763315868771	0	1
2382.3033370718999	1680.8763315868771	0	1
2367.5969213236499	1680.8763315868771	0	1
2372.3033370719008	1680.8763315868771	0	1
2367.5969213236499	1706.2370894412379	0	1
2372.3033370719008	1706.2370894412379	0	1
2389.1999999999998	1689.5999999999999	0	0
[NumSegments] = 34
0	1	-1	0	0	1
2	23	-1	0	0	1
3	25	-1	0	0	1
4	3	-1	0	0	1
1	21	-1	0	0	1
5	6	-1	0	0	1
7	29	-1	0	0	1
8	27	-1	0	0	1
9	8	-1	0	0	1
9	17	-1	0	0	1
10	11	-1	0	0	1
12	10	-1	0	0	1
13	12	-1	0	0	1
13	11	-1	0	0	1
15	6	-1	0	0	1
14	15	-1	0	0	1
16	14	-1	0	0	1
17	15	-1	0	0	1
17	16	-1	0	0	1
19	4	-1	0	0	1
18	19	-1	0	0	1
20	18	-1	0	0	1
21	19	-1	0	0	1
21	20	-1	0	0	1
23	0	-1	0	0	1
22	23	-1	0	0	1
24	22	-1	0	0	1
25	2	-1	0	0	1
25	24	-1	0	0	1
27	7	-1	0	0	1
26	27	-1	0	0	1
28	26	-1	0	0	1
29	5	-1	0	0	1
29	28	-1	0	0	1
[NumArcSegments] = 0
[NumHoles] = 0
[NumBlockLabels] = 7
2328.1999999999998	1716.2	1	-1	0	0	0	1	0
2338.6999999999998	1713	2	-1	0	0	0	1	0
2331	1698.5999999999999	4	-1	2	0	0	-2200	0
2342.5999999999999	1693.5999999999999	4	-1	2	0	0	2200	0
2355.8000000000002	1685.0999999999999	1	-1	0	0	0	1	0
2369.9000000000001	1694.9000000000001	3	-1	0	0	0	1	0
2383.1999999999998	1689.9000000000001	3	-1	0	0	0	1	0
