[Format]      =  4.0
[Frequency]   =  0
[Precision]   =  1e-008
[MinAngle]    =  30
[DoSmartMesh] =  1
[Depth]       =  1
[LengthUnits] =  inches
[ProblemType] =  planar
[Coordinates] =  cartesian
[ACSolver]    =  0
[PrevType]    =  0
[PrevSoln]    =  ""
[Comment]     =  "Add comments here."
[PointProps]   = 0
[BdryProps]   = 0
[BlockProps]  = 4
  <BeginBlock>
    <BlockName> = "N52"
    <Mu_x> = 1.05
    <Mu_y> = 1.05
    <H_c> = 956180
    <H_cAngle> = 0
    <J_re> = 0
    <J_im> = 0
    <Sigma> = 0.66700000000000004
    <d_lam> = 0
    <Phi_h> = 0
    <Phi_hx> = 0
    <Phi_hy> = 0
    <LamType> = 0
    <LamFill> = 1
    <NStrands> = 0
    <WireD> = 0
    <BHPoints> = 8
      0	0
      0.073200000000000001	7484
      0.1464	18446
      0.2195	37084
      0.29270000000000002	72766
      0.3659	124571
      0.43909999999999999	179757
      1.4636	956180
  <EndBlock>
  <BeginBlock>
    <BlockName> = "Air"
    <Mu_x> = 1
    <Mu_y> = 1
    <H_c> = 0
    <H_cAngle> = 0
    <J_re> = 0
    <J_im> = 0
    <Sigma> = 0
    <d_lam> = 0
    <Phi_h> = 0
    <Phi_hx> = 0
    <Phi_hy> = 0
    <LamType> = 0
    <LamFill> = 1
    <NStrands> = 0
    <WireD> = 0
    <BHPoints> = 0
  <EndBlock>
  <BeginBlock>
    <BlockName> = "1020 Steel"
    <Mu_x> = 760
    <Mu_y> = 760
    <H_c> = 0
    <H_cAngle> = 0
    <J_re> = 0
    <J_im> = 0
    <Sigma> = 5.7999999999999998
    <d_lam> = 0
    <Phi_h> = 20
    <Phi_hx> = 0
    <Phi_hy> = 0
    <LamType> = 0
    <LamFill> = 1
    <NStrands> = 0
    <WireD> = 0
    <BHPoints> = 38
      0	0
      0.16625200000000001	79.577472
      0.20872499999999999	100.182101
      0.26163500000000001	126.121793
      0.32714599999999999	158.77793
      0.407495	199.88957099999999
      0.50460400000000005	251.646061
      0.61936599999999997	316.80362000000002
      0.750502	398.83212800000001
      0.89319499999999996	502.09990099999999
      1.0382579999999999	632.10632499999997
      1.173276	795.77471500000001
      1.2867310000000001	1001.821011
      1.3735329999999999	1261.2179289999999
      1.4376580000000001	1587.779301
      1.4891890000000001	1998.89571
      1.5383439999999999	2516.4606050000002
      1.591321	3168.036204
      1.6497230000000001	3988.3212819999999
      1.711927	5020.9990129999996
      1.7747120000000001	6321.0632500000002
      1.8349759999999999	7957.747155
      1.8914420000000001	10018.210114
      1.945262	12612.179292999999
      1.998705	15877.793009999999
      2.0528520000000001	19988.957103000001
      2.1061839999999998	25164.606051999999
      2.1551490000000002	31680.362036999999
      2.1963750000000002	39883.212823000002
      2.2290079999999999	50209.990126999997
      2.2554500000000002	63210.632496999999
      2.2800530000000001	79577.471546000001
      2.3071359999999999	100182.101136
      2.3399749999999999	126121.79292599999
      2.3810440000000002	158777.930096
      2.4327079999999999	199889.57102999999
      2.4977480000000001	251646.06052200001
      2.5796269999999999	316803.62037000002
  <EndBlock>
  <BeginBlock>
    <BlockName> = "M470-65A 50HZ"
    <Mu_x> = 1
    <Mu_y> = 1
    <H_c> = 0
    <H_cAngle> = 0
    <J_re> = 0
    <J_im> = 0
    <Sigma> = 0
    <d_lam> = 0
    <Phi_h> = 0
    <Phi_hx> = 0
    <Phi_hy> = 0
    <LamType> = 0
    <LamFill> = 1
    <NStrands> = 0
    <WireD> = 0
    <BHPoints> = 32
      0	0
      0.10000000000000001	32
      0.14999999999999999	37
      0.20000000000000001	42
      0.25	47
      0.29999999999999999	52
      0.34999999999999998	56
      0.40000000000000002	61
      0.45000000000000001	65
      0.5	70
      0.55000000000000004	74
      0.59999999999999998	79
      0.65000000000000002	83
      0.69999999999999996	88
      0.75	93
      0.80000000000000004	98
      0.84999999999999998	103
      0.90000000000000002	109
      1	124
      1.05	133
      1.1000000000000001	144
      1.1499999999999999	157
      1.2	175
      1.25	201
      1.3	236
      1.3500000000000001	287
      1.3999999999999999	390
      1.45	598
      1.5	1022
      1.55	1765
      1.6000000000000001	2858
      1.6499999999999999	4292
  <EndBlock>
[CircuitProps]  = 0
[NumPoints] = 378
-72.775305525799993	21.570636705399998	0	0
-75.805650573099996	22.382615213600001	0	0
-76.540259632499996	23.4629988979	0	0
-76.354424860199998	25.075937395099999	0	0
-101.2565825571	35.419848935499999	0	0
-76.937405105699995	26.102279322000001	0	0
-107.5190076224	23.639270328999999	0	0
-104.93081717130001	33.298528591900002	0	0
-105.39768727880001	19.965035714900001	0	0
-79.712046197099994	15.8729840607	0	0
-78.812954951899997	16.459769540500002	0	0
-78.116165445899995	17.995640159800001	0	0
-73.8103181038	17.7080321794	0	0
-76.946682302499994	18.5484184337	0	0
-75.878438717799995	2	0	0
-79.015682763699999	2	0	0
-80.004884499900001	2.8534396876999999	0	0
-80.242841095599999	4.4595162166	0	0
-106.9736796529	8.0058148422999995	0	0
-81.071593608399994	5.2999999999999998	0	0
-109.9736796529	-4.9941851576999996	0	0
-109.9736796529	5.0058148423000004	0	0
-106.9736796529	-7.9941851576999996	0	0
-81.104154665699994	-5.2988704354999996	0	0
-80.387570469300002	-4.4993772484000001	0	0
-80.112036056999997	-2.8354977568000002	0	0
-75.878468482399995	-1.9988704355	0	0
-79.1254716304	-1.9988704355	0	0
-73.810581706199997	-17.706933400200001	0	0
-76.8409267535	-18.5189119084	0	0
-78.017308702899996	-17.950576721699999	0	0
-78.662840317800004	-16.460813622300002	0	0
-105.4006972626	-19.9538023022	0	0
-79.680886983799994	-15.8634655633	0	0
-104.93382715520001	-33.287295179300003	0	0
-107.5220176062	-23.628036916399999	0	0
-101.259592541	-35.4086155229	0	0
-76.969149024700002	-26.1096156682	0	0
-76.483905905900002	-25.1518989134	0	0
-76.648403802299995	-23.4734011872	0	0
-72.775626629000001	-21.5695533335	0	0
-75.911990827699995	-22.409939587699998	0	0
-66.712655529100005	-36.207168551300001	0	0
-69.429588570700005	-37.775790574299997	0	0
-70.712982247599996	-37.531290992199999	0	0
-71.722096968900004	-36.259366215599997	0	0
-96.644831536799998	-46.553600795100003	0	0
-72.860059590199995	-35.945862164200001	0	0
-92.742907748199997	-59.311931044300003	0	0
-97.742907748199997	-50.6516770064	0	0
-88.644831536799998	-60.4100072556	0	0
-67.588823075199997	-45.141033741299999	0	0
-67.367989550700003	-44.090360232999998	0	0
-67.961309495899997	-42.511631118300002	0	0
-64.713246088299996	-39.6703068172	0	0
-67.525233300599993	-41.293808391200002	0	0
-55.0683721256	-52.239945000799999	0	0
-57.286738664700003	-54.458311539900002	0	0
-58.589682910800001	-54.554309805000003	0	0
-59.893611237999998	-53.5869029228	0	0
-81.3027802549	-69.980848327100006	0	0
-61.073939542399998	-53.5786076618	0	0
-74.231712443099994	-81.294556826100006	0	0
-81.3027802549	-74.2234890143	0	0
-69.9890717559	-81.294556826100006	0	0
-53.602430529000003	-61.096164964000003	0	0
-53.6610560385	-60.024136365399997	0	0
-54.642764258699998	-58.652763642499998	0	0
-52.240764770299997	-55.067594449600001	0	0
-54.536742714799999	-57.363572394099997	0	0
-39.671270166500001	-64.712655529100005	0	0
-41.239892189400003	-67.429588570700005	0	0
-42.473593507700002	-67.859542559900007	0	0
-43.983474880000003	-67.262580752299996	0	0
-60.4200788578	-88.639016694600002	0	0
-45.125731444300001	-67.560059590199998	0	0
-50.6617486086	-97.737092905899999	0	0
-59.322002646500003	-92.737092905899999	0	0
-46.563672397300003	-96.639016694600002	0	0
-35.963120924400002	-72.887693510700004	0	0
-36.297210236300003	-71.867366799099997	0	0
-37.600404938700002	-70.796807252700006	0	0
-36.208161665200002	-66.712116523700004	0	0
-37.831663239199997	-69.524103736100002	0	0
-21.570636705399998	-72.775305525799993	0	0
-22.382615213600001	-75.805650573099996	0	0
-23.4629988979	-76.540259632499996	0	0
-25.075937395099999	-76.354424860199998	0	0
-35.419848935499999	-101.2565825571	0	0
-26.102279322000001	-76.937405105699995	0	0
-23.639270328999999	-107.5190076224	0	0
-33.298528591900002	-104.93081717130001	0	0
-19.965035714900001	-105.39768727880001	0	0
-15.8729840607	-79.712046197099994	0	0
-16.459769540500002	-78.812954951899997	0	0
-17.995640159800001	-78.116165445899995	0	0
-17.7080321794	-73.8103181038	0	0
-18.5484184337	-76.946682302499994	0	0
-2	-75.878438717799995	0	0
-2	-79.015682763699999	0	0
-2.8534396876999999	-80.004884499900001	0	0
-4.4595162166	-80.242841095599999	0	0
-8.0058148422999995	-106.9736796529	0	0
-5.2999999999999998	-81.071593608399994	0	0
4.9941851576999996	-109.9736796529	0	0
-5.0058148423000004	-109.9736796529	0	0
7.9941851576999996	-106.9736796529	0	0
5.2988704354999996	-81.104154665699994	0	0
4.4993772484000001	-80.387570469300002	0	0
2.8354977568000002	-80.112036056999997	0	0
1.9988704355	-75.878468482399995	0	0
1.9988704355	-79.1254716304	0	0
17.706933400200001	-73.810581706199997	0	0
18.5189119084	-76.8409267535	0	0
17.950576721699999	-78.017308702899996	0	0
16.460813622300002	-78.662840317800004	0	0
19.9538023022	-105.4006972626	0	0
15.8634655633	-79.680886983799994	0	0
33.287295179300003	-104.93382715520001	0	0
23.628036916399999	-107.5220176062	0	0
35.4086155229	-101.259592541	0	0
26.1096156682	-76.969149024700002	0	0
25.1518989134	-76.483905905900002	0	0
23.4734011872	-76.648403802299995	0	0
21.5695533335	-72.775626629000001	0	0
22.409939587699998	-75.911990827699995	0	0
36.207168551300001	-66.712655529100005	0	0
37.775790574299997	-69.429588570700005	0	0
37.531290992199999	-70.712982247599996	0	0
36.259366215599997	-71.722096968900004	0	0
46.553600795100003	-96.644831536799998	0	0
35.945862164200001	-72.860059590199995	0	0
59.311931044300003	-92.742907748199997	0	0
50.6516770064	-97.742907748199997	0	0
60.4100072556	-88.644831536799998	0	0
45.141033741299999	-67.588823075199997	0	0
44.090360232999998	-67.367989550700003	0	0
42.511631118300002	-67.961309495899997	0	0
39.6703068172	-64.713246088299996	0	0
41.293808391200002	-67.525233300599993	0	0
52.239945000799999	-55.0683721256	0	0
54.458311539900002	-57.286738664700003	0	0
54.554309805000003	-58.589682910800001	0	0
53.5869029228	-59.893611237999998	0	0
69.980848327100006	-81.3027802549	0	0
53.5786076618	-61.073939542399998	0	0
81.294556826100006	-74.231712443099994	0	0
74.2234890143	-81.3027802549	0	0
81.294556826100006	-69.9890717559	0	0
61.096164964000003	-53.602430529000003	0	0
60.024136365399997	-53.6610560385	0	0
58.652763642499998	-54.642764258699998	0	0
55.067594449600001	-52.240764770299997	0	0
57.363572394099997	-54.536742714799999	0	0
64.712655529100005	-39.671270166500001	0	0
67.429588570700005	-41.239892189400003	0	0
67.859542559900007	-42.473593507700002	0	0
67.262580752299996	-43.983474880000003	0	0
88.639016694600002	-60.4200788578	0	0
67.560059590199998	-45.125731444300001	0	0
97.737092905899999	-50.6617486086	0	0
92.737092905899999	-59.322002646500003	0	0
96.639016694600002	-46.563672397300003	0	0
72.887693510700004	-35.963120924400002	0	0
71.867366799099997	-36.297210236300003	0	0
70.796807252700006	-37.600404938700002	0	0
66.712116523700004	-36.208161665200002	0	0
69.524103736100002	-37.831663239199997	0	0
72.775305525799993	-21.570636705399998	0	0
75.805650573099996	-22.382615213600001	0	0
76.540259632499996	-23.4629988979	0	0
76.354424860199998	-25.075937395099999	0	0
101.2565825571	-35.419848935499999	0	0
76.937405105699995	-26.102279322000001	0	0
107.5190076224	-23.639270328999999	0	0
104.93081717130001	-33.298528591900002	0	0
105.39768727880001	-19.965035714900001	0	0
79.712046197099994	-15.8729840607	0	0
78.812954951899997	-16.459769540500002	0	0
78.116165445899995	-17.995640159800001	0	0
73.8103181038	-17.7080321794	0	0
76.946682302499994	-18.5484184337	0	0
75.878438717799995	-2	0	0
79.015682763699999	-2	0	0
80.004884499900001	-2.8534396876999999	0	0
80.242841095599999	-4.4595162166	0	0
106.9736796529	-8.0058148422999995	0	0
81.071593608399994	-5.2999999999999998	0	0
109.9736796529	4.9941851576999996	0	0
109.9736796529	-5.0058148423000004	0	0
106.9736796529	7.9941851576999996	0	0
81.104154665699994	5.2988704354999996	0	0
80.387570469300002	4.4993772484000001	0	0
80.112036056999997	2.8354977568000002	0	0
75.878468482399995	1.9988704355	0	0
79.1254716304	1.9988704355	0	0
73.810581706199997	17.706933400200001	0	0
76.8409267535	18.5189119084	0	0
78.017308702899996	17.950576721699999	0	0
78.662840317800004	16.460813622300002	0	0
105.4006972626	19.9538023022	0	0
79.680886983799994	15.8634655633	0	0
104.93382715520001	33.287295179300003	0	0
107.5220176062	23.628036916399999	0	0
101.259592541	35.4086155229	0	0
76.969149024700002	26.1096156682	0	0
76.483905905900002	25.1518989134	0	0
76.648403802299995	23.4734011872	0	0
72.775626629000001	21.5695533335	0	0
75.911990827699995	22.409939587699998	0	0
66.712655529100005	36.207168551300001	0	0
69.429588570700005	37.775790574299997	0	0
70.712982247599996	37.531290992199999	0	0
71.722096968900004	36.259366215599997	0	0
96.644831536799998	46.553600795100003	0	0
72.860059590199995	35.945862164200001	0	0
92.742907748199997	59.311931044300003	0	0
97.742907748199997	50.6516770064	0	0
88.644831536799998	60.4100072556	0	0
67.588823075199997	45.141033741299999	0	0
67.367989550700003	44.090360232999998	0	0
67.961309495899997	42.511631118300002	0	0
64.713246088299996	39.6703068172	0	0
67.525233300599993	41.293808391200002	0	0
55.0683721256	52.239945000799999	0	0
57.286738664700003	54.458311539900002	0	0
58.589682910800001	54.554309805000003	0	0
59.893611237999998	53.5869029228	0	0
81.3027802549	69.980848327100006	0	0
61.073939542399998	53.5786076618	0	0
74.231712443099994	81.294556826100006	0	0
81.3027802549	74.2234890143	0	0
69.9890717559	81.294556826100006	0	0
53.602430529000003	61.096164964000003	0	0
53.6610560385	60.024136365399997	0	0
54.642764258699998	58.652763642499998	0	0
52.240764770299997	55.067594449600001	0	0
54.536742714799999	57.363572394099997	0	0
39.671270166500001	64.712655529100005	0	0
41.239892189400003	67.429588570700005	0	0
42.473593507700002	67.859542559900007	0	0
43.983474880000003	67.262580752299996	0	0
60.4200788578	88.639016694600002	0	0
45.125731444300001	67.560059590199998	0	0
50.6617486086	97.737092905899999	0	0
59.322002646500003	92.737092905899999	0	0
46.563672397300003	96.639016694600002	0	0
35.963120924400002	72.887693510700004	0	0
36.297210236300003	71.867366799099997	0	0
37.600404938700002	70.796807252700006	0	0
36.208161665200002	66.712116523700004	0	0
37.831663239199997	69.524103736100002	0	0
21.570636705399998	72.775305525799993	0	0
22.382615213600001	75.805650573099996	0	0
23.4629988979	76.540259632499996	0	0
25.075937395099999	76.354424860199998	0	0
35.419848935499999	101.2565825571	0	0
26.102279322000001	76.937405105699995	0	0
23.639270328999999	107.5190076224	0	0
33.298528591900002	104.93081717130001	0	0
19.965035714900001	105.39768727880001	0	0
15.8729840607	79.712046197099994	0	0
16.459769540500002	78.812954951899997	0	0
17.995640159800001	78.116165445899995	0	0
17.7080321794	73.8103181038	0	0
18.5484184337	76.946682302499994	0	0
2	75.878438717799995	0	0
2	79.015682763699999	0	0
2.8534396876999999	80.004884499900001	0	0
4.4595162166	80.242841095599999	0	0
8.0058148422999995	106.9736796529	0	0
5.2999999999999998	81.071593608399994	0	0
-4.9941851576999996	109.9736796529	0	0
5.0058148423000004	109.9736796529	0	0
-7.9941851576999996	106.9736796529	0	0
-5.2988704354999996	81.104154665699994	0	0
-4.4993772484000001	80.387570469300002	0	0
-2.8354977568000002	80.112036056999997	0	0
-1.9988704355	75.878468482399995	0	0
-1.9988704355	79.1254716304	0	0
-17.706933400200001	73.810581706199997	0	0
-18.5189119084	76.8409267535	0	0
-17.950576721699999	78.017308702899996	0	0
-16.460813622300002	78.662840317800004	0	0
-19.9538023022	105.4006972626	0	0
-15.8634655633	79.680886983799994	0	0
-33.287295179300003	104.93382715520001	0	0
-23.628036916399999	107.5220176062	0	0
-35.4086155229	101.259592541	0	0
-26.1096156682	76.969149024700002	0	0
-25.1518989134	76.483905905900002	0	0
-23.4734011872	76.648403802299995	0	0
-21.5695533335	72.775626629000001	0	0
-22.409939587699998	75.911990827699995	0	0
-36.207168551300001	66.712655529100005	0	0
-37.775790574299997	69.429588570700005	0	0
-37.531290992199999	70.712982247599996	0	0
-36.259366215599997	71.722096968900004	0	0
-46.553600795100003	96.644831536799998	0	0
-35.945862164200001	72.860059590199995	0	0
-59.311931044300003	92.742907748199997	0	0
-50.6516770064	97.742907748199997	0	0
-60.4100072556	88.644831536799998	0	0
-45.141033741299999	67.588823075199997	0	0
-44.090360232999998	67.367989550700003	0	0
-42.511631118300002	67.961309495899997	0	0
-39.6703068172	64.713246088299996	0	0
-41.293808391200002	67.525233300599993	0	0
-52.239945000799999	55.0683721256	0	0
-54.458311539900002	57.286738664700003	0	0
-54.554309805000003	58.589682910800001	0	0
-53.5869029228	59.893611237999998	0	0
-69.980848327100006	81.3027802549	0	0
-53.5786076618	61.073939542399998	0	0
-81.294556826100006	74.231712443099994	0	0
-74.2234890143	81.3027802549	0	0
-81.294556826100006	69.9890717559	0	0
-61.096164964000003	53.602430529000003	0	0
-60.024136365399997	53.6610560385	0	0
-58.652763642499998	54.642764258699998	0	0
-55.067594449600001	52.240764770299997	0	0
-57.363572394099997	54.536742714799999	0	0
-64.712655529100005	39.671270166500001	0	0
-67.429588570700005	41.239892189400003	0	0
-67.859542559900007	42.473593507700002	0	0
-67.262580752299996	43.983474880000003	0	0
-88.639016694600002	60.4200788578	0	0
-67.560059590199998	45.125731444300001	0	0
-97.737092905899999	50.6617486086	0	0
-92.737092905899999	59.322002646500003	0	0
-96.639016694600002	46.563672397300003	0	0
-72.887693510700004	35.963120924400002	0	0
-71.867366799099997	36.297210236300003	0	0
-70.796807252700006	37.600404938700002	0	0
-66.712116523700004	36.208161665200002	0	0
-69.524103736100002	37.831663239199997	0	0
6	23.5	0	0
6	16.439282222799999	0	0
-6	23.5	0	0
-6	16.439282222799999	0	0
124.9999999999999	0	0	0
-124.9999999999999	0	0	0
75.000000000000099	0	0	0
-75.000000000000099	0	0	0
-63.88848908495234	21.783272541363004	0	0
-63.947446028472534	-21.609584601480307	0	0
-29.772884141385745	60.579083600957773	0	0
-60.497956536710475	29.937388914755363	0	0
-21.783272543362994	-63.888489083952315	0	0
21.609584599480268	-63.94744602747253	0	0
29.772884138385763	-60.579083601957819	0	0
60.497956533710486	-29.937388915755438	0	0
63.888489081952429	-21.78327254236304	0	0
63.947446025472637	21.609584600480364	0	0
60.579083599957848	29.772884139385784	0	0
29.937388913755409	60.497956534710546	0	0
21.783272540362994	63.888489082952326	0	0
-21.609584602480322	63.94744602647252	0	0
-31.978282966488432	65.066423127017089	0	0
-64.979286650429458	32.154973278848196	0	0
-68.620969757724282	23.396848285220894	0	0
-60.579083602957901	-29.772884140385774	0	0
-29.93738891675542	-60.497956535710593	0	0
-68.684293882325036	-23.210294571921533	0	0
-65.066423129017096	-31.978282965488429	0	0
-32.154973280848246	-64.97928664942954	0	0
-23.396848287220894	-68.62096975682428	0	0
23.210294569923065	-68.684293881321778	0	0
31.97828296358843	-65.066423128017092	0	0
64.979286647429504	-32.154973279848299	0	0
63.847413772646554	-28.805516040940223	0	0
68.620969754824287	-23.396848286220898	0	0
68.684293879321757	23.210294570923114	0	0
65.066423126017099	31.978282964588427	0	0
32.154973277848022	64.979286648429081	0	0
23.396848284220901	68.620969755824291	0	0
-23.210294572923093	68.684293880321704	0	0
-3.2146978477618059e-015	-17.500000000000021	0	0
[NumSegments] = 171
0	1	-1	0	0	0
2	3	-1	0	0	0
4	5	-1	0	0	0
6	7	-1	0	0	0
8	9	-1	0	0	0
10	11	-1	0	0	0
12	13	-1	0	0	0
14	15	-1	0	0	0
16	17	-1	0	0	0
18	19	-1	0	0	0
20	21	-1	0	0	0
22	23	-1	0	0	0
24	25	-1	0	0	0
26	27	-1	0	0	0
28	29	-1	0	0	0
30	31	-1	0	0	0
32	33	-1	0	0	0
34	35	-1	0	0	0
36	37	-1	0	0	0
38	39	-1	0	0	0
40	41	-1	0	0	0
42	43	-1	0	0	0
44	45	-1	0	0	0
46	47	-1	0	0	0
48	49	-1	0	0	0
50	51	-1	0	0	0
52	53	-1	0	0	0
54	55	-1	0	0	0
56	57	-1	0	0	0
58	59	-1	0	0	0
60	61	-1	0	0	0
62	63	-1	0	0	0
64	65	-1	0	0	0
66	67	-1	0	0	0
68	69	-1	0	0	0
70	71	-1	0	0	0
72	73	-1	0	0	0
74	75	-1	0	0	0
76	77	-1	0	0	0
78	79	-1	0	0	0
80	81	-1	0	0	0
82	83	-1	0	0	0
84	85	-1	0	0	0
86	87	-1	0	0	0
88	89	-1	0	0	0
90	91	-1	0	0	0
92	93	-1	0	0	0
94	95	-1	0	0	0
96	97	-1	0	0	0
98	99	-1	0	0	0
100	101	-1	0	0	0
102	103	-1	0	0	0
104	105	-1	0	0	0
106	107	-1	0	0	0
108	109	-1	0	0	0
110	111	-1	0	0	0
112	113	-1	0	0	0
114	115	-1	0	0	0
116	117	-1	0	0	0
118	119	-1	0	0	0
120	121	-1	0	0	0
122	123	-1	0	0	0
124	125	-1	0	0	0
126	127	-1	0	0	0
128	129	-1	0	0	0
130	131	-1	0	0	0
132	133	-1	0	0	0
134	135	-1	0	0	0
136	137	-1	0	0	0
138	139	-1	0	0	0
140	141	-1	0	0	0
142	143	-1	0	0	0
144	145	-1	0	0	0
146	147	-1	0	0	0
148	149	-1	0	0	0
150	151	-1	0	0	0
152	153	-1	0	0	0
154	155	-1	0	0	0
156	157	-1	0	0	0
158	159	-1	0	0	0
160	161	-1	0	0	0
162	163	-1	0	0	0
164	165	-1	0	0	0
166	167	-1	0	0	0
168	169	-1	0	0	0
170	171	-1	0	0	0
172	173	-1	0	0	0
174	175	-1	0	0	0
176	177	-1	0	0	0
178	179	-1	0	0	0
180	181	-1	0	0	0
182	183	-1	0	0	0
184	185	-1	0	0	0
186	187	-1	0	0	0
188	189	-1	0	0	0
190	191	-1	0	0	0
192	193	-1	0	0	0
194	195	-1	0	0	0
196	197	-1	0	0	0
198	199	-1	0	0	0
200	201	-1	0	0	0
202	203	-1	0	0	0
204	205	-1	0	0	0
206	207	-1	0	0	0
208	209	-1	0	0	0
210	211	-1	0	0	0
212	213	-1	0	0	0
214	215	-1	0	0	0
216	217	-1	0	0	0
218	219	-1	0	0	0
220	221	-1	0	0	0
222	223	-1	0	0	0
224	225	-1	0	0	0
226	227	-1	0	0	0
228	229	-1	0	0	0
230	231	-1	0	0	0
232	233	-1	0	0	0
234	235	-1	0	0	0
236	237	-1	0	0	0
238	239	-1	0	0	0
240	241	-1	0	0	0
242	243	-1	0	0	0
244	245	-1	0	0	0
246	247	-1	0	0	0
248	249	-1	0	0	0
250	251	-1	0	0	0
252	253	-1	0	0	0
254	255	-1	0	0	0
256	257	-1	0	0	0
258	259	-1	0	0	0
260	261	-1	0	0	0
262	263	-1	0	0	0
264	265	-1	0	0	0
266	267	-1	0	0	0
268	269	-1	0	0	0
270	271	-1	0	0	0
272	273	-1	0	0	0
274	275	-1	0	0	0
276	277	-1	0	0	0
278	279	-1	0	0	0
280	281	-1	0	0	0
282	283	-1	0	0	0
284	285	-1	0	0	0
286	287	-1	0	0	0
288	289	-1	0	0	0
290	291	-1	0	0	0
292	293	-1	0	0	0
294	295	-1	0	0	0
296	297	-1	0	0	0
298	299	-1	0	0	0
300	301	-1	0	0	0
302	303	-1	0	0	0
304	305	-1	0	0	0
306	307	-1	0	0	0
308	309	-1	0	0	0
310	311	-1	0	0	0
312	313	-1	0	0	0
314	315	-1	0	0	0
316	317	-1	0	0	0
318	319	-1	0	0	0
320	321	-1	0	0	0
322	323	-1	0	0	0
324	325	-1	0	0	0
326	327	-1	0	0	0
328	329	-1	0	0	0
330	331	-1	0	0	0
332	333	-1	0	0	0
334	335	-1	0	0	0
336	337	-1	0	0	0
338	336	-1	0	0	0
338	339	-1	0	0	0
[NumArcSegments] = 207
340	341	180	5	0	0	0	5
341	340	180	5	0	0	0	5
342	343	180	5	0	0	0	5
343	342	180	5	0	0	0	5
2	1	81.572356128199999	5	0	0	0	5
3	5	72.339384425399999	5	0	0	0	5
4	7	90.000000000200004	5	0	0	0	5
6	8	89.999999999900012	5	0	0	0	5
9	10	64.934196467700019	5	0	0	0	5
13	11	80.597286907000012	5	0	0	0	5
12	14	11.981153666000012	5	0	0	0	5
16	15	81.572356128199999	5	0	0	0	5
17	19	72.339384425399999	5	0	0	0	5
18	21	90.000000000200004	5	0	0	0	5
20	22	89.999999999900012	5	0	0	0	5
23	24	64.934196467700019	5	0	0	0	5
27	25	80.597286907000012	5	0	0	0	5
26	28	11.981153666000012	5	0	0	0	5
30	29	81.572356128199999	5	0	0	0	5
31	33	72.339384425399999	5	0	0	0	5
32	35	90.000000000200004	5	0	0	0	5
34	36	89.999999999900012	5	0	0	0	5
37	38	64.934196467700019	5	0	0	0	5
41	39	80.597286907000012	5	0	0	0	5
40	42	11.981153666000012	5	0	0	0	5
44	43	81.572356128199999	5	0	0	0	5
45	47	72.339384425399999	5	0	0	0	5
46	49	90.000000000200004	5	0	0	0	5
48	50	89.999999999900012	5	0	0	0	5
51	52	64.934196467700019	5	0	0	0	5
55	53	80.597286907000012	5	0	0	0	5
54	56	11.981153666000012	5	0	0	0	5
58	57	81.572356128199999	5	0	0	0	5
59	61	72.339384425399999	5	0	0	0	5
60	63	90.000000000200004	5	0	0	0	5
62	64	89.999999999900012	5	0	0	0	5
65	66	64.934196467700019	5	0	0	0	5
69	67	80.597286907000012	5	0	0	0	5
68	70	11.981153666000012	5	0	0	0	5
72	71	81.572356128199999	5	0	0	0	5
73	75	72.339384425399999	5	0	0	0	5
74	77	90.000000000200004	5	0	0	0	5
76	78	89.999999999900012	5	0	0	0	5
79	80	64.934196467700019	5	0	0	0	5
83	81	80.597286907000012	5	0	0	0	5
82	84	11.981153666000012	5	0	0	0	5
86	85	81.572356128199999	5	0	0	0	5
87	89	72.339384425399999	5	0	0	0	5
88	91	90.000000000200004	5	0	0	0	5
90	92	89.999999999900012	5	0	0	0	5
93	94	64.934196467699991	5	0	0	0	5
97	95	80.597286907000012	5	0	0	0	5
96	98	11.981153666000012	5	0	0	0	5
100	99	81.572356128199999	5	0	0	0	5
101	103	72.339384425399999	5	0	0	0	5
102	105	90.000000000200004	5	0	0	0	5
104	106	89.999999999900012	5	0	0	0	5
107	108	64.934196467699991	5	0	0	0	5
111	109	80.597286907000012	5	0	0	0	5
110	112	11.981153666000012	5	0	0	0	5
114	113	81.572356128199999	5	0	0	0	5
115	117	72.339384425399999	5	0	0	0	5
116	119	90.000000000200004	5	0	0	0	5
118	120	89.999999999900012	5	0	0	0	5
121	122	64.934196467699991	5	0	0	0	5
125	123	80.597286907000012	5	0	0	0	5
124	126	11.981153666000012	5	0	0	0	5
128	127	81.572356128199999	5	0	0	0	5
129	131	72.339384425399999	5	0	0	0	5
130	133	90.000000000200004	5	0	0	0	5
132	134	89.999999999900012	5	0	0	0	5
135	136	64.934196467699991	5	0	0	0	5
139	137	80.597286907000012	5	0	0	0	5
138	140	11.981153666000012	5	0	0	0	5
142	141	81.572356128199999	5	0	0	0	5
143	145	72.339384425399999	5	0	0	0	5
144	147	90.000000000200004	5	0	0	0	5
146	148	89.999999999900012	5	0	0	0	5
149	150	64.934196467699991	5	0	0	0	5
153	151	80.597286907000012	5	0	0	0	5
152	154	11.981153666000012	5	0	0	0	5
156	155	81.572356128199999	5	0	0	0	5
157	159	72.339384425399999	5	0	0	0	5
158	161	90.000000000200004	5	0	0	0	5
160	162	89.999999999900012	5	0	0	0	5
163	164	64.934196467700005	5	0	0	0	5
167	165	80.597286907000012	5	0	0	0	5
166	168	11.981153666000012	5	0	0	0	5
170	169	81.572356128199999	5	0	0	0	5
171	173	72.339384425399999	5	0	0	0	5
172	175	90.000000000200004	5	0	0	0	5
174	176	89.999999999900012	5	0	0	0	5
177	178	64.934196467700005	5	0	0	0	5
181	179	80.597286907000012	5	0	0	0	5
180	182	11.981153666000012	5	0	0	0	5
184	183	81.572356128199999	5	0	0	0	5
185	187	72.339384425399999	5	0	0	0	5
186	189	90.000000000199975	5	0	0	0	5
188	190	89.999999999900012	5	0	0	0	5
191	192	64.934196467700005	5	0	0	0	5
195	193	80.597286907000012	5	0	0	0	5
194	196	11.981153666000001	5	0	0	0	5
198	197	81.572356128199999	5	0	0	0	5
199	201	72.339384425399999	5	0	0	0	5
200	203	90.000000000199975	5	0	0	0	5
202	204	89.999999999899998	5	0	0	0	5
205	206	64.934196467700005	5	0	0	0	5
209	207	80.597286907000012	5	0	0	0	5
208	210	11.981153666000001	5	0	0	0	5
212	211	81.572356128199999	5	0	0	0	5
213	215	72.339384425399999	5	0	0	0	5
214	217	90.000000000199975	5	0	0	0	5
216	218	89.999999999899998	5	0	0	0	5
219	220	64.934196467700019	5	0	0	0	5
223	221	80.597286907000012	5	0	0	0	5
222	224	11.981153665999997	5	0	0	0	5
226	225	81.572356128199999	5	0	0	0	5
227	229	72.339384425399999	5	0	0	0	5
228	231	90.000000000199975	5	0	0	0	5
230	232	89.999999999900012	5	0	0	0	5
233	234	64.934196467700019	5	0	0	0	5
237	235	80.597286907000012	5	0	0	0	5
236	238	11.981153665999997	5	0	0	0	5
240	239	81.572356128199999	5	0	0	0	5
241	243	72.339384425399999	5	0	0	0	5
242	245	90.000000000199975	5	0	0	0	5
244	246	89.999999999900012	5	0	0	0	5
247	248	64.934196467700019	5	0	0	0	5
251	249	80.597286907000012	5	0	0	0	5
250	252	11.981153665999997	5	0	0	0	5
254	253	81.572356128199999	5	0	0	0	5
255	257	72.339384425399999	5	0	0	0	5
256	259	90.000000000199975	5	0	0	0	5
258	260	89.999999999900012	5	0	0	0	5
261	262	64.934196467700019	5	0	0	0	5
265	263	80.597286907000012	5	0	0	0	5
264	266	11.981153665999997	5	0	0	0	5
268	267	81.572356128199999	5	0	0	0	5
269	271	72.339384425399999	5	0	0	0	5
270	273	90.000000000199975	5	0	0	0	5
272	274	89.999999999900012	5	0	0	0	5
275	276	64.934196467700019	5	0	0	0	5
279	277	80.597286906999997	5	0	0	0	5
278	280	11.981153665999997	5	0	0	0	5
282	281	81.572356128199999	5	0	0	0	5
283	285	72.339384425399999	5	0	0	0	5
284	287	90.000000000100002	5	0	0	0	5
286	288	90.000000000000014	5	0	0	0	5
289	290	64.934196467700019	5	0	0	0	5
293	291	80.597286906999997	5	0	0	0	5
292	294	11.981153665999997	5	0	0	0	5
296	295	81.572356128199999	5	0	0	0	5
297	299	72.339384425399999	5	0	0	0	5
298	301	90.000000000100002	5	0	0	0	5
300	302	90.000000000000014	5	0	0	0	5
303	304	64.934196467700019	5	0	0	0	5
307	305	80.597286906999997	5	0	0	0	5
306	308	11.981153665999997	5	0	0	0	5
310	309	81.572356128199999	5	0	0	0	5
311	313	72.339384425399999	5	0	0	0	5
312	315	90.000000000100016	5	0	0	0	5
314	316	89.999999999900012	5	0	0	0	5
317	318	64.934196467700019	5	0	0	0	5
321	319	80.597286906999997	5	0	0	0	5
320	322	11.981153666000012	5	0	0	0	5
324	323	81.572356128199999	5	0	0	0	5
325	327	72.339384425399999	5	0	0	0	5
326	329	90.000000000100016	5	0	0	0	5
328	330	90	5	0	0	0	5
331	332	64.934196467700019	5	0	0	0	5
335	333	80.597286907000012	5	0	0	0	5
334	0	11.981153666000012	5	0	0	0	5
344	345	37.498717596200009	5	0	0	0	5
346	347	37.498717596200009	5	0	0	0	5
348	349	37.498717596199981	5	0	0	0	5
350	351	37.498717596199981	5	0	0	0	5
352	353	37.498717596199981	5	0	0	0	5
354	355	37.498717596200002	5	0	0	0	5
356	357	37.498717596199995	5	0	0	0	5
346	358	180	5	0	0	0	5
358	359	37.498717596200009	5	0	0	0	5
359	347	179.99999999999997	5	0	0	0	5
344	360	179.99999999999994	5	0	0	0	5
361	362	37.498717596200009	5	0	0	0	5
363	345	179.99999999999997	5	0	0	0	5
361	364	180	5	0	0	0	5
364	365	37.498717596200009	5	0	0	0	5
365	362	179.99999999999997	5	0	0	0	5
348	366	180	5	0	0	0	5
366	367	37.498717596199981	5	0	0	0	5
367	349	180	5	0	0	0	5
350	368	180	5	0	0	0	5
368	369	37.498717596199981	5	0	0	0	5
369	370	90.000000000000028	5	0	0	0	5