[Format]      =  4.0
[Frequency]   =  0
[Precision]   =  1e-008
[MinAngle]    =  30
[DoSmartMesh] =  1
[Depth]       =  1
[LengthUnits] =  millimeters
[ProblemType] =  planar
[Coordinates] =  cartesian
[ACSolver]    =  0
[PrevType]    =  0
[PrevSoln]    =  ""
[Comment]     =  "Add comments here."
[PointProps]   = 0
[BdryProps]   = 1
  <BeginBdry>
    <BdryName> = "magnet"
    <BdryType> = 0
    <A_0> = 0
    <A_1> = 0
    <A_2> = 0
    <Phi> = 0
    <c0> = 0
    <c0i> = 0
    <c1> = 0
    <c1i> = 0
    <Mu_ssd> = 0
    <Sigma_ssd> = 0
    <innerangle> = 0
    <outerangle> = 0
  <EndBdry>
[BlockProps]  = 3
  <BeginBlock>
    <BlockName> = "Air"
    <Mu_x> = 1
    <Mu_y> = 1
    <H_c> = 0
    <H_cAngle> = 0
    <J_re> = 0
    <J_im> = 0
    <Sigma> = 0
    <d_lam> = 0
    <Phi_h> = 0
    <Phi_hx> = 0
    <Phi_hy> = 0
    <LamType> = 0
    <LamFill> = 1
    <NStrands> = 0
    <WireD> = 0
    <BHPoints> = 0
  <EndBlock>
  <BeginBlock>
    <BlockName> = "M470-65A 50HZ"
    <Mu_x> = 1
    <Mu_y> = 1
    <H_c> = 0
    <H_cAngle> = 0
    <J_re> = 0
    <J_im> = 0
    <Sigma> = 0
    <d_lam> = 0
    <Phi_h> = 0
    <Phi_hx> = 0
    <Phi_hy> = 0
    <LamType> = 0
    <LamFill> = 1
    <NStrands> = 0
    <WireD> = 0
    <BHPoints> = 32
      0	0
      0.10000000000000001	32
      0.14999999999999999	37
      0.20000000000000001	42
      0.25	47
      0.29999999999999999	52
      0.34999999999999998	56
      0.40000000000000002	61
      0.45000000000000001	65
      0.5	70
      0.55000000000000004	74
      0.59999999999999998	79
      0.65000000000000002	83
      0.69999999999999996	88
      0.75	93
      0.80000000000000004	98
      0.84999999999999998	103
      0.90000000000000002	109
      1	124
      1.05	133
      1.1000000000000001	144
      1.1499999999999999	157
      1.2	175
      1.25	201
      1.3	236
      1.3500000000000001	287
      1.3999999999999999	390
      1.45	598
      1.5	1022
      1.55	1765
      1.6000000000000001	2858
      1.6499999999999999	4292
  <EndBlock>
  <BeginBlock>
    <BlockName> = "N52"
    <Mu_x> = 1.05
    <Mu_y> = 1.05
    <H_c> = 956180
    <H_cAngle> = 0
    <J_re> = 0
    <J_im> = 0
    <Sigma> = 0.66700000000000004
    <d_lam> = 0
    <Phi_h> = 0
    <Phi_hx> = 0
    <Phi_hy> = 0
    <LamType> = 0
    <LamFill> = 1
    <NStrands> = 0
    <WireD> = 0
    <BHPoints> = 8
      0	0
      0.073200000000000001	7484
      0.1464	18446
      0.2195	37084
      0.29270000000000002	72766
      0.3659	124571
      0.43909999999999999	179757
      1.4636	956180
  <EndBlock>
[CircuitProps]  = 0
[NumPoints] = 18
2382.3033370718999	1718.5318769431201	0	1
2332.3033370718999	1718.5318769431201	0	1
2382.3033370718999	1698.5318769431201	0	1
2382.3033370718999	1668.5318769431201	0	1
2332.3033370718999	1668.5318769431201	0	1
2372.3033370719008	1708.531876943121	0	1
2342.3033370718999	1708.531876943121	0	1
2372.3033370719008	1698.5318769431201	0	1
2372.3033370719008	1678.531876943121	0	1
2342.3033370718999	1678.531876943121	0	1
2342.3033370718999	1699.6919936925899	0	1
2332.3033370718999	1699.6919936925899	0	1
2342.3033370718999	1690.059892665618	0	1
2332.3033370718999	1690.059892665618	0	1
2391.754199689738	1724.9942270971189	0	1
2322.838432249479	1724.9942270971189	0	1
2391.754199689738	1660.1572531875379	0	1
2322.838432249479	1660.1572531875379	0	1
[NumSegments] = 20
0	1	-1	0	0	1
2	0	-1	0	0	1
3	2	-1	0	0	1
4	3	-1	0	0	1
1	11	-1	0	0	1
5	6	-1	0	0	1
7	5	-1	0	0	1
8	7	-1	0	0	1
9	8	-1	0	0	1
9	12	-1	0	0	1
10	6	-1	0	0	1
11	13	-1	0	0	1
10	11	-1	0	0	1
12	10	-1	0	0	1
13	4	-1	0	0	1
13	12	-1	0	0	1
14	15	-1	0	0	1
16	14	-1	0	0	1
17	16	-1	0	0	1
17	15	-1	0	0	1
[NumArcSegments] = 0
[NumHoles] = 0
[NumBlockLabels] = 4
2355	1712	2	-1	0	0	0	1	0
2328	1697	1	-1	0	0	0	1	0
2336.3000000000002	1693.9000000000001	3	-1	0	90	0	1	0
2359.4000000000001	1691.4000000000001	1	-1	0	0	0	1	0
