[Format]      =  4.0
[Frequency]   =  0
[Precision]   =  1e-008
[MinAngle]    =  30
[DoSmartMesh] =  1
[Depth]       =  1
[LengthUnits] =  inches
[ProblemType] =  planar
[Coordinates] =  cartesian
[ACSolver]    =  0
[PrevType]    =  0
[PrevSoln]    =  ""
[Comment]     =  "Add comments here."
[PointProps]   = 0
[BdryProps]   = 0
[BlockProps]  = 4
  <BeginBlock>
    <BlockName> = "N52"
    <Mu_x> = 1.05
    <Mu_y> = 1.05
    <H_c> = 956180
    <H_cAngle> = 0
    <J_re> = 0
    <J_im> = 0
    <Sigma> = 0.66700000000000004
    <d_lam> = 0
    <Phi_h> = 0
    <Phi_hx> = 0
    <Phi_hy> = 0
    <LamType> = 0
    <LamFill> = 1
    <NStrands> = 0
    <WireD> = 0
    <BHPoints> = 8
      0	0
      0.073200000000000001	7484
      0.1464	18446
      0.2195	37084
      0.29270000000000002	72766
      0.3659	124571
      0.43909999999999999	179757
      1.4636	956180
  <EndBlock>
  <BeginBlock>
    <BlockName> = "M-15 Steel"
    <Mu_x> = 1
    <Mu_y> = 1
    <H_c> = 0
    <H_cAngle> = 0
    <J_re> = 0
    <J_im> = 0
    <Sigma> = 1.8999999999999999
    <d_lam> = 0.63500000000000001
    <Phi_h> = 0
    <Phi_hx> = 0
    <Phi_hy> = 0
    <LamType> = 0
    <LamFill> = 0.97999999999999998
    <NStrands> = 0
    <WireD> = 0
    <BHPoints> = 47
      0	0
      0.050000000000000003	15.120714
      0.10000000000000001	22.718292000000002
      0.14999999999999999	27.842732999999999
      0.20000000000000001	31.871434000000001
      0.25	35.365043999999997
      0.29999999999999999	38.600588000000002
      0.34999999999999998	41.736201999999999
      0.40000000000000002	44.873978999999999
      0.45000000000000001	48.087806999999998
      0.5	51.437235999999999
      0.55000000000000004	54.975220999999998
      0.59999999999999998	58.752992999999996
      0.65000000000000002	62.823644000000002
      0.69999999999999996	67.245284999999996
      0.75	72.084406000000001
      0.80000000000000004	77.420100000000005
      0.84999999999999998	83.350020999999998
      0.90000000000000002	89.999611999999999
      0.94999999999999996	97.537352999999996
      1	106.20140600000001
      1.05	116.34846400000001
      1.1000000000000001	128.54732899999999
      1.1499999999999999	143.76543100000001
      1.2	163.75416899999999
      1.25	191.86815799999999
      1.3	234.833507
      1.3500000000000001	306.50976900000001
      1.3999999999999999	435.255202
      1.45	674.911968
      1.5	1108.3255690000001
      1.55	1813.085468
      1.6000000000000001	2801.2174209999998
      1.6499999999999999	4053.6531169999998
      1.7	5591.10689
      1.75	7448.318413
      1.8	9708.81567
      1.8500000000000001	12486.931615
      1.8999999999999999	16041.483644
      1.95	21249.420623999998
      2	31313.495878000002
      2.0499999999999998	53589.446877000002
      2.1000000000000001	88477.484601000004
      2.1499999999999999	124329.41054
      2.2000000000000002	159968.5693
      2.25	197751.604272
      2.2999999999999998	234024.75134700001
  <EndBlock>
  <BeginBlock>
    <BlockName> = "Air"
    <Mu_x> = 1
    <Mu_y> = 1
    <H_c> = 0
    <H_cAngle> = 0
    <J_re> = 0
    <J_im> = 0
    <Sigma> = 0
    <d_lam> = 0
    <Phi_h> = 0
    <Phi_hx> = 0
    <Phi_hy> = 0
    <LamType> = 0
    <LamFill> = 1
    <NStrands> = 0
    <WireD> = 0
    <BHPoints> = 0
  <EndBlock>
  <BeginBlock>
    <BlockName> = "1020 Steel"
    <Mu_x> = 760
    <Mu_y> = 760
    <H_c> = 0
    <H_cAngle> = 0
    <J_re> = 0
    <J_im> = 0
    <Sigma> = 5.7999999999999998
    <d_lam> = 0
    <Phi_h> = 20
    <Phi_hx> = 0
    <Phi_hy> = 0
    <LamType> = 0
    <LamFill> = 1
    <NStrands> = 0
    <WireD> = 0
    <BHPoints> = 38
      0	0
      0.16625200000000001	79.577472
      0.20872499999999999	100.182101
      0.26163500000000001	126.121793
      0.32714599999999999	158.77793
      0.407495	199.88957099999999
      0.50460400000000005	251.646061
      0.61936599999999997	316.80362000000002
      0.750502	398.83212800000001
      0.89319499999999996	502.09990099999999
      1.0382579999999999	632.10632499999997
      1.173276	795.77471500000001
      1.2867310000000001	1001.821011
      1.3735329999999999	1261.2179289999999
      1.4376580000000001	1587.779301
      1.4891890000000001	1998.89571
      1.5383439999999999	2516.4606050000002
      1.591321	3168.036204
      1.6497230000000001	3988.3212819999999
      1.711927	5020.9990129999996
      1.7747120000000001	6321.0632500000002
      1.8349759999999999	7957.747155
      1.8914420000000001	10018.210114
      1.945262	12612.179292999999
      1.998705	15877.793009999999
      2.0528520000000001	19988.957103000001
      2.1061839999999998	25164.606051999999
      2.1551490000000002	31680.362036999999
      2.1963750000000002	39883.212823000002
      2.2290079999999999	50209.990126999997
      2.2554500000000002	63210.632496999999
      2.2800530000000001	79577.471546000001
      2.3071359999999999	100182.101136
      2.3399749999999999	126121.79292599999
      2.3810440000000002	158777.930096
      2.4327079999999999	199889.57102999999
      2.4977480000000001	251646.06052200001
      2.5796269999999999	316803.62037000002
  <EndBlock>
[CircuitProps]  = 0
[NumPoints] = 365
-6	23.5	0	0
6	23.5	0	0
-6	16.439282222799999	0	0
6	16.439282222799999	0	0
-26.787358898200001	64.671766662600007	0	0
-28.7007416766	69.291178567100005	0	0
26.788321631399999	64.671367885400002	0	0
28.701773176500001	69.290751305800001	0	0
64.671766662600007	26.787358898200001	0	0
69.291178567100005	28.7007416766	0	0
64.671367885400002	-26.788321631399999	0	0
69.290751305800001	-28.701773176500001	0	0
26.787358898200001	-64.671766662600007	0	0
28.7007416766	-69.291178567100005	0	0
-26.788321631399999	-64.671367885400002	0	0
-28.701773176500001	-69.290751305800001	0	0
-64.671766662600007	-26.787358898200001	0	0
-69.291178567100005	-28.7007416766	0	0
-64.671367885400002	26.788321631399999	0	0
-69.290751305800001	28.701773176500001	0	0
-1.9988704355	75.878468482399995	0	0
-1.9988704355	79.1254716304	0	0
2	75.878438717799995	0	0
2	79.015682763699985	0	0
-4.9941851576999987	109.9736796529	0	0
5.0058148423000004	109.9736796529	0	0
-4.4993772484000001	80.387570469299988	0	0
-2.8354977568000002	80.112036057099985	0	0
2.853439687699999	80.004884499899987	0	0
4.4595162165999991	80.242841095599985	0	0
-7.9941851576999987	106.9736796529	0	0
-5.2988704354999996	81.104154665699994	0	0
8.0058148422999995	106.9736796529	0	0
5.2999999999999989	81.071593608399994	0	0
17.7080321794	73.8103181038	0	0
18.5484184337	76.946682302499994	0	0
21.570636705399998	72.775305525799993	0	0
22.382615213600001	75.80565057310001	0	0
23.639270328999999	107.5190076224	0	0
33.298528591900002	104.93081717130001	0	0
16.459769540500002	78.812954951899997	0	0
17.995640159800001	78.116165445899995	0	0
23.4629988979	76.540259632499996	0	0
25.075937395099999	76.354424860199998	0	0
19.965035714900001	105.39768727880001	0	0
15.8729840607	79.712046197099994	0	0
35.419848935499999	101.2565825571	0	0
26.102279322000001	76.937405105699995	0	0
36.208161665200002	66.712116523700004	0	0
37.831663239199997	69.524103736100002	0	0
39.671270166500001	64.712655529100005	0	0
41.239892189400003	67.429588570699991	0	0
50.6617486086	97.737092905899999	0	0
59.322002646499989	92.737092905899999	0	0
36.29721023630001	71.867366799099997	0	0
37.600404938700002	70.796807252700006	0	0
42.473593507700002	67.859542559899992	0	0
43.983474880000003	67.262580752299996	0	0
46.563672397299989	96.639016694599988	0	0
35.963120924400002	72.887693510700004	0	0
60.4200788578	88.639016694599974	0	0
45.125731444300001	67.560059590199998	0	0
52.24076477029999	55.067594449600001	0	0
54.536742714799992	57.363572394099997	0	0
55.0683721256	52.239945000799992	0	0
57.286738664700003	54.458311539899988	0	0
74.231712443100008	81.294556826099978	0	0
81.3027802549	74.2234890143	0	0
53.661056038500007	60.024136365399997	0	0
54.642764258699998	58.652763642499998	0	0
58.589682910800001	54.554309805000003	0	0
59.893611238000013	53.5869029228	0	0
69.9890717559	81.294556826099978	0	0
53.602430528999989	61.096164964000003	0	0
81.3027802549	69.980848327100006	0	0
61.073939542399991	53.578607661799992	0	0
64.713246088299996	39.6703068172	0	0
67.525233300699995	41.293808391199988	0	0
66.712655529100005	36.207168551300001	0	0
69.429588570699991	37.775790574299997	0	0
92.742907748199997	59.31193104430001	0	0
97.742907748199997	50.651677006399993	0	0
67.367989550700003	44.090360232999991	0	0
67.961309495899997	42.511631118300002	0	0
70.712982247599996	37.531290992199999	0	0
71.722096968900004	36.259366215599997	0	0
88.644831536799998	60.4100072556	0	0
67.588823075200011	45.141033741299999	0	0
96.644831536799998	46.553600795100003	0	0
72.860059590200009	35.945862164200001	0	0
72.775626629000001	21.5695533335	0	0
75.911990827700009	22.409939587699998	0	0
73.810581706199997	17.706933400200001	0	0
76.8409267535	18.5189119084	0	0
104.93382715520001	33.287295179300003	0	0
107.5220176062	23.628036916399999	0	0
76.483905905900002	25.1518989134	0	0
76.648403802299995	23.4734011872	0	0
78.017308702899996	17.950576721699999	0	0
78.662840317800004	16.460813622300002	0	0
101.259592541	35.4086155229	0	0
76.969149024700002	26.1096156682	0	0
105.4006972626	19.9538023022	0	0
79.680886983799994	15.8634655633	0	0
75.878468482399995	1.9988704355	0	0
79.1254716304	1.9988704355	0	0
75.878438717799995	-2	0	0
79.015682763699985	-2	0	0
109.9736796529	4.9941851576999987	0	0
109.9736796529	-5.0058148423000004	0	0
80.387570469299988	4.4993772484000001	0	0
80.112036057099985	2.8354977568000002	0	0
80.004884499899987	-2.853439687699999	0	0
80.242841095599985	-4.4595162165999991	0	0
106.9736796529	7.9941851576999987	0	0
81.104154665699994	5.2988704354999996	0	0
106.9736796529	-8.0058148422999995	0	0
81.071593608399994	-5.2999999999999989	0	0
73.8103181038	-17.7080321794	0	0
76.946682302499994	-18.5484184337	0	0
72.775305525799993	-21.570636705399998	0	0
75.80565057310001	-22.382615213600001	0	0
107.5190076224	-23.639270328999999	0	0
104.93081717130001	-33.298528591900002	0	0
78.812954951899997	-16.459769540500002	0	0
78.116165445899995	-17.995640159800001	0	0
76.540259632499996	-23.4629988979	0	0
76.354424860199998	-25.075937395099999	0	0
105.39768727880001	-19.965035714900001	0	0
79.712046197099994	-15.8729840607	0	0
101.2565825571	-35.419848935499999	0	0
76.937405105699995	-26.102279322000001	0	0
66.712116523700004	-36.208161665200002	0	0
69.524103736100002	-37.831663239199997	0	0
64.712655529100005	-39.671270166500001	0	0
67.429588570699991	-41.239892189400003	0	0
97.737092905899999	-50.6617486086	0	0
92.737092905899999	-59.322002646499989	0	0
71.867366799099997	-36.29721023630001	0	0
70.796807252700006	-37.600404938700002	0	0
67.859542559899992	-42.473593507700002	0	0
67.262580752299996	-43.983474880000003	0	0
96.639016694599988	-46.563672397299989	0	0
72.887693510700004	-35.963120924400002	0	0
88.639016694599974	-60.4200788578	0	0
67.560059590199998	-45.125731444300001	0	0
55.067594449600001	-52.24076477029999	0	0
57.363572394099997	-54.536742714799992	0	0
52.239945000799992	-55.0683721256	0	0
54.458311539899988	-57.286738664700003	0	0
81.294556826099978	-74.231712443100008	0	0
74.2234890143	-81.3027802549	0	0
60.024136365399997	-53.661056038500007	0	0
58.652763642499998	-54.642764258699998	0	0
54.554309805000003	-58.589682910800001	0	0
53.5869029228	-59.893611238000013	0	0
81.294556826099978	-69.9890717559	0	0
61.096164964000003	-53.602430528999989	0	0
69.980848327100006	-81.3027802549	0	0
53.578607661799992	-61.073939542399991	0	0
39.6703068172	-64.713246088299996	0	0
41.293808391199988	-67.525233300699995	0	0
36.207168551300001	-66.712655529100005	0	0
37.775790574299997	-69.429588570699991	0	0
59.31193104430001	-92.742907748199997	0	0
50.651677006399993	-97.742907748199997	0	0
44.090360232999991	-67.367989550700003	0	0
42.511631118300002	-67.961309495899997	0	0
37.531290992199999	-70.712982247599996	0	0
36.259366215599997	-71.722096968900004	0	0
60.4100072556	-88.644831536799998	0	0
45.141033741299999	-67.588823075200011	0	0
46.553600795100003	-96.644831536799998	0	0
35.945862164200001	-72.860059590200009	0	0
21.5695533335	-72.775626629000001	0	0
22.409939587699998	-75.911990827700009	0	0
17.706933400200001	-73.810581706199997	0	0
18.5189119084	-76.8409267535	0	0
33.287295179300003	-104.93382715520001	0	0
23.628036916399999	-107.5220176062	0	0
25.1518989134	-76.483905905900002	0	0
23.4734011872	-76.648403802299995	0	0
17.950576721699999	-78.017308702899996	0	0
16.460813622300002	-78.662840317800004	0	0
35.4086155229	-101.259592541	0	0
26.1096156682	-76.969149024700002	0	0
19.9538023022	-105.4006972626	0	0
15.8634655633	-79.680886983799994	0	0
1.9988704355	-75.878468482399995	0	0
1.9988704355	-79.1254716304	0	0
-2	-75.878438717799995	0	0
-2	-79.015682763699985	0	0
4.9941851576999987	-109.9736796529	0	0
-5.0058148423000004	-109.9736796529	0	0
4.4993772484000001	-80.387570469299988	0	0
2.8354977568000002	-80.112036057099985	0	0
-2.853439687699999	-80.004884499899987	0	0
-4.4595162165999991	-80.242841095599985	0	0
7.9941851576999987	-106.9736796529	0	0
5.2988704354999996	-81.104154665699994	0	0
-8.0058148422999995	-106.9736796529	0	0
-5.2999999999999989	-81.071593608399994	0	0
-17.7080321794	-73.8103181038	0	0
-18.5484184337	-76.946682302499994	0	0
-21.570636705399998	-72.775305525799993	0	0
-22.382615213600001	-75.80565057310001	0	0
-23.639270328999999	-107.5190076224	0	0
-33.298528591900002	-104.93081717130001	0	0
-16.459769540500002	-78.812954951899997	0	0
-17.995640159800001	-78.116165445899995	0	0
-23.4629988979	-76.540259632499996	0	0
-25.075937395099999	-76.354424860199998	0	0
-19.965035714900001	-105.39768727880001	0	0
-15.8729840607	-79.712046197099994	0	0
-35.419848935499999	-101.2565825571	0	0
-26.102279322000001	-76.937405105699995	0	0
-36.208161665200002	-66.712116523700004	0	0
-37.831663239199997	-69.524103736100002	0	0
-39.671270166500001	-64.712655529100005	0	0
-41.239892189400003	-67.429588570699991	0	0
-50.6617486086	-97.737092905899999	0	0
-59.322002646499989	-92.737092905899999	0	0
-36.29721023630001	-71.867366799099997	0	0
-37.600404938700002	-70.796807252700006	0	0
-42.473593507700002	-67.859542559899992	0	0
-43.983474880000003	-67.262580752299996	0	0
-46.563672397299989	-96.639016694599988	0	0
-35.963120924400002	-72.887693510700004	0	0
-60.4200788578	-88.639016694599974	0	0
-45.125731444300001	-67.560059590199998	0	0
-52.24076477029999	-55.067594449600001	0	0
-54.536742714799992	-57.363572394099997	0	0
-55.0683721256	-52.239945000799992	0	0
-57.286738664700003	-54.458311539899988	0	0
-74.231712443100008	-81.294556826099978	0	0
-81.3027802549	-74.2234890143	0	0
-53.661056038500007	-60.024136365399997	0	0
-54.642764258699998	-58.652763642499998	0	0
-58.589682910800001	-54.554309805000003	0	0
-59.893611238000013	-53.5869029228	0	0
-69.9890717559	-81.294556826099978	0	0
-53.602430528999989	-61.096164964000003	0	0
-81.3027802549	-69.980848327100006	0	0
-61.073939542399991	-53.578607661799992	0	0
-64.713246088299996	-39.6703068172	0	0
-67.525233300699995	-41.293808391199988	0	0
-66.712655529100005	-36.207168551300001	0	0
-69.429588570699991	-37.775790574299997	0	0
-92.742907748199997	-59.31193104430001	0	0
-97.742907748199997	-50.651677006399993	0	0
-67.367989550700003	-44.090360232999991	0	0
-67.961309495899997	-42.511631118300002	0	0
-70.712982247599996	-37.531290992199999	0	0
-71.722096968900004	-36.259366215599997	0	0
-88.644831536799998	-60.4100072556	0	0
-67.588823075200011	-45.141033741299999	0	0
-96.644831536799998	-46.553600795100003	0	0
-72.860059590200009	-35.945862164200001	0	0
-72.775626629000001	-21.5695533335	0	0
-75.911990827700009	-22.409939587699998	0	0
-73.810581706199997	-17.706933400200001	0	0
-76.8409267535	-18.5189119084	0	0
-104.93382715520001	-33.287295179300003	0	0
-107.5220176062	-23.628036916399999	0	0
-76.483905905900002	-25.1518989134	0	0
-76.648403802299995	-23.4734011872	0	0
-78.017308702899996	-17.950576721699999	0	0
-78.662840317800004	-16.460813622300002	0	0
-101.259592541	-35.4086155229	0	0
-76.969149024700002	-26.1096156682	0	0
-105.4006972626	-19.9538023022	0	0
-79.680886983799994	-15.8634655633	0	0
-75.878468482399995	-1.9988704355	0	0
-79.1254716304	-1.9988704355	0	0
-75.878438717799995	2	0	0
-79.015682763699985	2	0	0
-109.9736796529	-4.9941851576999987	0	0
-109.9736796529	5.0058148423000004	0	0
-80.387570469299988	-4.4993772484000001	0	0
-80.112036057099985	-2.8354977568000002	0	0
-80.004884499899987	2.853439687699999	0	0
-80.242841095599985	4.4595162165999991	0	0
-106.9736796529	-7.9941851576999987	0	0
-81.104154665699994	-5.2988704354999996	0	0
-106.9736796529	8.0058148422999995	0	0
-81.071593608399994	5.2999999999999989	0	0
-73.8103181038	17.7080321794	0	0
-76.946682302499994	18.5484184337	0	0
-72.775305525799993	21.570636705399998	0	0
-75.80565057310001	22.382615213600001	0	0
-107.5190076224	23.639270328999999	0	0
-104.93081717130001	33.298528591900002	0	0
-78.812954951899997	16.459769540500002	0	0
-78.116165445899995	17.995640159800001	0	0
-76.540259632499996	23.4629988979	0	0
-76.354424860199998	25.075937395099999	0	0
-105.39768727880001	19.965035714900001	0	0
-79.712046197099994	15.8729840607	0	0
-101.2565825571	35.419848935499999	0	0
-76.937405105699995	26.102279322000001	0	0
-66.712116523700004	36.208161665200002	0	0
-69.524103736100002	37.831663239199997	0	0
-64.712655529100005	39.671270166500001	0	0
-67.429588570699991	41.239892189400003	0	0
-97.737092905899999	50.6617486086	0	0
-92.737092905899999	59.322002646499989	0	0
-71.867366799099997	36.29721023630001	0	0
-70.796807252700006	37.600404938700002	0	0
-67.859542559899992	42.473593507700002	0	0
-67.262580752299996	43.983474880000003	0	0
-96.639016694599988	46.563672397299989	0	0
-72.887693510700004	35.963120924400002	0	0
-88.639016694599974	60.4200788578	0	0
-67.560059590199998	45.125731444300001	0	0
-55.067594449600001	52.24076477029999	0	0
-57.363572394099997	54.536742714799992	0	0
-52.239945000799992	55.0683721256	0	0
-54.458311539899988	57.286738664700003	0	0
-81.294556826099978	74.231712443100008	0	0
-74.2234890143	81.3027802549	0	0
-60.024136365399997	53.661056038500007	0	0
-58.652763642499998	54.642764258699998	0	0
-54.554309805000003	58.589682910800001	0	0
-53.5869029228	59.893611238000013	0	0
-81.294556826099978	69.9890717559	0	0
-61.096164964000003	53.602430528999989	0	0
-69.980848327100006	81.3027802549	0	0
-53.578607661799992	61.073939542399991	0	0
-39.6703068172	64.713246088299996	0	0
-41.293808391199988	67.525233300699995	0	0
-36.207168551300001	66.712655529100005	0	0
-37.775790574299997	69.429588570699991	0	0
-59.31193104430001	92.742907748199997	0	0
-50.651677006399993	97.742907748199997	0	0
-44.090360232999991	67.367989550700003	0	0
-42.511631118300002	67.961309495899997	0	0
-37.531290992199999	70.712982247599996	0	0
-36.259366215599997	71.722096968900004	0	0
-60.4100072556	88.644831536799998	0	0
-45.141033741299999	67.588823075200011	0	0
-46.553600795100003	96.644831536799998	0	0
-35.945862164200001	72.860059590200009	0	0
-21.5695533335	72.775626629000001	0	0
-22.409939587699998	75.911990827700009	0	0
-17.706933400200001	73.810581706199997	0	0
-18.5189119084	76.8409267535	0	0
-33.287295179300003	104.93382715520001	0	0
-23.628036916399999	107.5220176062	0	0
-25.1518989134	76.483905905900002	0	0
-23.4734011872	76.648403802299995	0	0
-17.950576721699999	78.017308702899996	0	0
-16.460813622300002	78.662840317800004	0	0
-35.4086155229	101.259592541	0	0
-26.1096156682	76.969149024700002	0	0
-19.9538023022	105.4006972626	0	0
-15.8634655633	79.680886983799994	0	0
-3.2146978477618039e-015	-17.500000000000011	0	0
75.000000000000014	0	0	0
-75.000000000000014	0	0	0
70.000000000000014	0	0	0
-70.000000000000014	0	0	0
125	0	0	0
-125	0	0	0
150.19666821330529	0	0	0
-150.19666821330529	0	0	0
[NumSegments] = 179
0	1	-1	0	0	0
0	2	-1	0	0	0
1	3	-1	0	0	0
4	5	-1	0	0	0
6	7	-1	0	0	0
8	9	-1	0	0	0
10	11	-1	0	0	0
12	13	-1	0	0	0
14	15	-1	0	0	0
16	17	-1	0	0	0
18	19	-1	0	0	0
20	21	-1	0	0	0
22	23	-1	0	0	0
24	25	-1	0	0	0
26	27	-1	0	0	0
28	29	-1	0	0	0
30	31	-1	0	0	0
32	33	-1	0	0	0
34	35	-1	0	0	0
36	37	-1	0	0	0
38	39	-1	0	0	0
40	41	-1	0	0	0
42	43	-1	0	0	0
44	45	-1	0	0	0
46	47	-1	0	0	0
48	49	-1	0	0	0
50	51	-1	0	0	0
52	53	-1	0	0	0
54	55	-1	0	0	0
56	57	-1	0	0	0
58	59	-1	0	0	0
60	61	-1	0	0	0
62	63	-1	0	0	0
64	65	-1	0	0	0
66	67	-1	0	0	0
68	69	-1	0	0	0
70	71	-1	0	0	0
72	73	-1	0	0	0
74	75	-1	0	0	0
76	77	-1	0	0	0
78	79	-1	0	0	0
80	81	-1	0	0	0
82	83	-1	0	0	0
84	85	-1	0	0	0
86	87	-1	0	0	0
88	89	-1	0	0	0
90	91	-1	0	0	0
92	93	-1	0	0	0
94	95	-1	0	0	0
96	97	-1	0	0	0
98	99	-1	0	0	0
100	101	-1	0	0	0
102	103	-1	0	0	0
104	105	-1	0	0	0
106	107	-1	0	0	0
108	109	-1	0	0	0
110	111	-1	0	0	0
112	113	-1	0	0	0
114	115	-1	0	0	0
116	117	-1	0	0	0
118	119	-1	0	0	0
120	121	-1	0	0	0
122	123	-1	0	0	0
124	125	-1	0	0	0
126	127	-1	0	0	0
128	129	-1	0	0	0
130	131	-1	0	0	0
132	133	-1	0	0	0
134	135	-1	0	0	0
136	137	-1	0	0	0
138	139	-1	0	0	0
140	141	-1	0	0	0
142	143	-1	0	0	0
144	145	-1	0	0	0
146	147	-1	0	0	0
148	149	-1	0	0	0
150	151	-1	0	0	0
152	153	-1	0	0	0
154	155	-1	0	0	0
156	157	-1	0	0	0
158	159	-1	0	0	0
160	161	-1	0	0	0
162	163	-1	0	0	0
164	165	-1	0	0	0
166	167	-1	0	0	0
168	169	-1	0	0	0
170	171	-1	0	0	0
172	173	-1	0	0	0
174	175	-1	0	0	0
176	177	-1	0	0	0
178	179	-1	0	0	0
180	181	-1	0	0	0
182	183	-1	0	0	0
184	185	-1	0	0	0
186	187	-1	0	0	0
188	189	-1	0	0	0
190	191	-1	0	0	0
192	193	-1	0	0	0
194	195	-1	0	0	0
196	197	-1	0	0	0
198	199	-1	0	0	0
200	201	-1	0	0	0
202	203	-1	0	0	0
204	205	-1	0	0	0
206	207	-1	0	0	0
208	209	-1	0	0	0
210	211	-1	0	0	0
212	213	-1	0	0	0
214	215	-1	0	0	0
216	217	-1	0	0	0
218	219	-1	0	0	0
220	221	-1	0	0	0
222	223	-1	0	0	0
224	225	-1	0	0	0
226	227	-1	0	0	0
228	229	-1	0	0	0
230	231	-1	0	0	0
232	233	-1	0	0	0
234	235	-1	0	0	0
236	237	-1	0	0	0
238	239	-1	0	0	0
240	241	-1	0	0	0
242	243	-1	0	0	0
244	245	-1	0	0	0
246	247	-1	0	0	0
248	249	-1	0	0	0
250	251	-1	0	0	0
252	253	-1	0	0	0
254	255	-1	0	0	0
256	257	-1	0	0	0
258	259	-1	0	0	0
260	261	-1	0	0	0
262	263	-1	0	0	0
264	265	-1	0	0	0
266	267	-1	0	0	0
268	269	-1	0	0	0
270	271	-1	0	0	0
272	273	-1	0	0	0
274	275	-1	0	0	0
276	277	-1	0	0	0
278	279	-1	0	0	0
280	281	-1	0	0	0
282	283	-1	0	0	0
284	285	-1	0	0	0
286	287	-1	0	0	0
288	289	-1	0	0	0
290	291	-1	0	0	0
292	293	-1	0	0	0
294	295	-1	0	0	0
296	297	-1	0	0	0
298	299	-1	0	0	0
300	301	-1	0	0	0
302	303	-1	0	0	0
304	305	-1	0	0	0
306	307	-1	0	0	0
308	309	-1	0	0	0
310	311	-1	0	0	0
312	313	-1	0	0	0
314	315	-1	0	0	0
316	317	-1	0	0	0
318	319	-1	0	0	0
320	321	-1	0	0	0
322	323	-1	0	0	0
324	325	-1	0	0	0
326	327	-1	0	0	0
328	329	-1	0	0	0
330	331	-1	0	0	0
332	333	-1	0	0	0
334	335	-1	0	0	0
336	337	-1	0	0	0
338	339	-1	0	0	0
340	341	-1	0	0	0
342	343	-1	0	0	0
344	345	-1	0	0	0
346	347	-1	0	0	0
348	349	-1	0	0	0
350	351	-1	0	0	0
352	353	-1	0	0	0
354	355	-1	0	0	0
[NumArcSegments] = 194
2	356	159.94895743349997	5	0	0	0	5
356	3	159.94895743349997	5	0	0	0	5
32	25	90.000000000199975	5	0	0	0	5
24	30	89.999999999900012	5	0	0	0	5
357	9	22.499573533169215	5	0	0	0	5
9	7	45.000000000059359	5	0	0	0	5
7	5	44.999999999940897	5	0	0	0	5
5	19	45.000000000068376	5	0	0	0	5
19	358	22.500426466762175	5	0	0	0	5
358	17	22.499573533170043	5	0	0	0	5
17	15	45.000000000061078	5	0	0	0	5
15	13	44.999999999942496	5	0	0	0	5
13	11	45.000000000061029	5	0	0	0	5
11	357	22.500426466765365	5	0	0	0	5
31	26	64.934196468700009	5	0	0	0	5
29	33	72.339384425399999	5	0	0	0	5
359	8	22.499573533209809	5	0	0	0	5
8	6	45.000000000016549	5	0	0	0	5
6	4	44.999999999981711	5	0	0	0	5
4	18	45.000000000024563	5	0	0	0	5
18	360	22.500426466767372	5	0	0	0	5
360	16	22.499573533211297	5	0	0	0	5
16	14	45.000000000019654	5	0	0	0	5
14	12	44.99999999998456	5	0	0	0	5
12	10	45.000000000014971	5	0	0	0	5
10	359	22.50042646676954	5	0	0	0	5
28	23	81.572356128199999	5	0	0	0	5
21	27	80.597286908000001	5	0	0	0	5
46	39	90.000000000199975	5	0	0	0	5
38	44	89.999999999900012	5	0	0	0	5
45	40	64.934196468700009	5	0	0	0	5
43	47	72.339384425399999	5	0	0	0	5
42	37	81.572356128199999	5	0	0	0	5
35	41	80.597286908000001	5	0	0	0	5
60	53	90.000000000199975	5	0	0	0	5
52	58	89.999999999900012	5	0	0	0	5
59	54	64.934196468700009	5	0	0	0	5
57	61	72.339384425399999	5	0	0	0	5
56	51	81.572356128199999	5	0	0	0	5
49	55	80.597286908000001	5	0	0	0	5
74	67	90.000000000199975	5	0	0	0	5
66	72	89.999999999899899	5	0	0	0	5
73	68	64.934196468700009	5	0	0	0	5
71	75	72.339384425399999	5	0	0	0	5
70	65	81.572356128199999	5	0	0	0	5
63	69	80.597286908000001	5	0	0	0	5
88	81	90.000000000199975	5	0	0	0	5
80	86	89.999999999899998	5	0	0	0	5
87	82	64.934196468700009	5	0	0	0	5
85	89	72.339384425399999	5	0	0	0	5
84	79	81.572356128199999	5	0	0	0	5
77	83	80.597286908000001	5	0	0	0	5
102	95	90.000000000199975	5	0	0	0	5
94	100	89.999999999899998	5	0	0	0	5
101	96	64.934196468699994	5	0	0	0	5
99	103	72.339384425399999	5	0	0	0	5
98	93	81.572356128199999	5	0	0	0	5
91	97	80.597286908000001	5	0	0	0	5
116	109	90.000000000200089	5	0	0	0	5
108	114	89.999999999899998	5	0	0	0	5
115	110	64.934196468699994	5	0	0	0	5
113	117	72.339384425399999	5	0	0	0	5
112	107	81.572356128199999	5	0	0	0	5
105	111	80.597286908000115	5	0	0	0	5
130	123	90.000000000200004	5	0	0	0	5
122	128	89.999999999899956	5	0	0	0	5
129	124	64.934196468699994	5	0	0	0	5
127	131	72.339384425399999	5	0	0	0	5
126	121	81.572356128199999	5	0	0	0	5
119	125	80.597286908000001	5	0	0	0	5
144	137	90.000000000200004	5	0	0	0	5
136	142	89.999999999900012	5	0	0	0	5
143	138	64.934196468699994	5	0	0	0	5
141	145	72.339384425399999	5	0	0	0	5
140	135	81.572356128199999	5	0	0	0	5
133	139	80.597286908000001	5	0	0	0	5
158	151	90.000000000200004	5	0	0	0	5
150	156	89.999999999900012	5	0	0	0	5
157	152	64.934196468699994	5	0	0	0	5
155	159	72.339384425399999	5	0	0	0	5
154	149	81.572356128199999	5	0	0	0	5
147	153	80.597286908000001	5	0	0	0	5
172	165	90.000000000200004	5	0	0	0	5
164	170	89.999999999900012	5	0	0	0	5
171	166	64.934196468700009	5	0	0	0	5
169	173	72.339384425399999	5	0	0	0	5
168	163	81.572356128199999	5	0	0	0	5
161	167	80.597286908000001	5	0	0	0	5
186	179	90.000000000200004	5	0	0	0	5
178	184	89.999999999900012	5	0	0	0	5
185	180	64.93419646869998	5	0	0	0	5
183	187	72.339384425399999	5	0	0	0	5
182	177	81.572356128199999	5	0	0	0	5
175	181	80.597286908000001	5	0	0	0	5
200	193	90.000000000200004	5	0	0	0	5
192	198	89.999999999899899	5	0	0	0	5
199	194	64.934196468700009	5	0	0	0	5
197	201	72.339384425399999	5	0	0	0	5
196	191	81.572356128199999	5	0	0	0	5
189	195	80.597286908000001	5	0	0	0	5
214	207	90.000000000200004	5	0	0	0	5
206	212	89.999999999900012	5	0	0	0	5
213	208	64.934196468699994	5	0	0	0	5
211	215	72.339384425399999	5	0	0	0	5
210	205	81.572356128199999	5	0	0	0	5
203	209	80.597286908000001	5	0	0	0	5
228	221	90.000000000200004	5	0	0	0	5
220	226	89.999999999900012	5	0	0	0	5
227	222	64.934196468700009	5	0	0	0	5
225	229	72.339384425399999	5	0	0	0	5
224	219	81.572356128199999	5	0	0	0	5
217	223	80.597286908000001	5	0	0	0	5
242	235	90.000000000200004	5	0	0	0	5
234	240	89.999999999900012	5	0	0	0	5
241	236	64.934196468700009	5	0	0	0	5
239	243	72.339384425399999	5	0	0	0	5
238	233	81.572356128199999	5	0	0	0	5
231	237	80.597286908000001	5	0	0	0	5
256	249	90.000000000200004	5	0	0	0	5
248	254	89.999999999900012	5	0	0	0	5
255	250	64.934196468700009	5	0	0	0	5
253	257	72.339384425399999	5	0	0	0	5
252	247	81.572356128199999	5	0	0	0	5
245	251	80.597286908000001	5	0	0	0	5
270	263	90.000000000200004	5	0	0	0	5
262	268	89.999999999900012	5	0	0	0	5
269	264	64.934196468700009	5	0	0	0	5
267	271	72.339384425399999	5	0	0	0	5
266	261	81.572356128199999	5	0	0	0	5
259	265	80.597286908000001	5	0	0	0	5
284	277	90.000000000200004	5	0	0	0	5
276	282	89.999999999900012	5	0	0	0	5
283	278	64.934196468700122	5	0	0	0	5
281	285	72.339384425399999	5	0	0	0	5
280	275	81.572356128199999	5	0	0	0	5
273	279	80.597286908000001	5	0	0	0	5
298	291	90.000000000200004	5	0	0	0	5
290	296	89.999999999900012	5	0	0	0	5
297	292	64.934196468700009	5	0	0	0	5
295	299	72.339384425399999	5	0	0	0	5
294	289	81.572356128199999	5	0	0	0	5
287	293	80.597286908000001	5	0	0	0	5
312	305	90.000000000200004	5	0	0	0	5
304	310	89.999999999900012	5	0	0	0	5
311	306	64.934196468700009	5	0	0	0	5
309	313	72.339384425399999	5	0	0	0	5
308	303	81.572356128199999	5	0	0	0	5
301	307	80.597286908000001	5	0	0	0	5
326	319	90.000000000200004	5	0	0	0	5
318	324	89.999999999900012	5	0	0	0	5
325	320	64.934196468700009	5	0	0	0	5
323	327	72.339384425399999	5	0	0	0	5
322	317	81.572356128199999	5	0	0	0	5
315	321	80.597286908000001	5	0	0	0	5
340	333	90.000000000200004	5	0	0	0	5
332	338	89.999999999900012	5	0	0	0	5
339	334	64.934196468700009	5	0	0	0	5
337	341	72.339384425399999	5	0	0	0	5
336	331	81.572356128199999	5	0	0	0	5
329	335	80.597286908000001	5	0	0	0	5
354	347	90.000000000200004	5	0	0	0	5
346	352	89.999999999900012	5	0	0	0	5
353	348	64.934196468700009	5	0	0	0	5
351	355	72.339384425399999	5	0	0	0	5
350	345	81.572356128199999	5	0	0	0	5
343	349	80.597286907999987	5	0	0	0	5
342	330	11.981153665999997	5	0	0	0	5
361	362	180	5	0	0	0	5
362	361	180	5	0	0	0	5
20	344	11.981153665999983	5	0	0	0	5
34	22	11.981153665999997	5	0	0	0	5
48	36	11.981153665999976	5	0	0	0	5
62	50	11.98115366599999	5	0	0	0	5
76	64	11.98115366599999	5	0	0	0	5
90	78	11.981153666000001	5	0	0	0	5
104	92	11.981153666000001	5	0	0	0	5
118	106	11.981153666000012	5	0	0	0	5